#---------------------------------------------------------------------------
#  CTI File converted from Solution Object
#---------------------------------------------------------------------------

units(length = "cm", time = "s", quantity = "mol", act_energy = "cal/mol")

ideal_gas(name = "", 
     elements = "C H O N", 
     species =""" ch2hco c3h2 ch4 oh c2h4oh o2 ac3h5 sc3h5 c2h4 pc3h4 
                 ch2 ch2chch2o ch3chco ch2oh hcooh o hcco c2h5 c2h3 nc3h7 hoc2h4o2 
                 h2o ch3oh hcoh ch2(s) n2 c2h ac3h4 ch3ch2o ch3choh 
                 ch2o c3h6 h2o2 h co2 ch2co c2h6 h2ccch ch3 ch2chco 
                 hco ch3hco h2 ch3o c3h8 ho2 c2o co c2h2 ch c2h5oh 
                 pc3h5 """, 
     reactions = "all", 
     initial_state = state(temperature = 0.001, pressure= 0.00019315745424911698)   )       

#---------------------------------------------------------------------------
#  Species data
#---------------------------------------------------------------------------

species(name = "ch2hco",
    atoms = "C:  2  H:  3  O:  1", 
    thermo = (
       NASA(   [300.0, 1000.0], [3.409062000e+00, 1.073857000e-02,
                1.891492000e-06, -7.158583000e-09,
                2.867385000e-12, 1.521477000e+03,
                9.558290000e+00]  ),
       NASA(   [1000.0, 5000.0], [5.975670000e+00, 8.130591000e-03,
                -2.743624000e-06, 4.070304000e-10,
                -2.176017000e-14, 4.903218000e+02,
                -5.045251000e+00]  )
               ),
    transport = gas_transport(
                   geom = "nonlinear",
                   diam = 3.97, 
                   well_depth = 436.0, 
                   polar = 0.0, 
                   rot_relax = 2.0) 
        )

species(name = "c3h2",
    atoms = "C:  3  H:  2", 
    thermo = (
       NASA(   [150.0, 1000.0], [3.166714000e+00, 2.482572000e-02,
                -4.591637000e-05, 4.268019000e-08,
                -1.482152000e-11, 6.350421000e+04,
                8.869446000e+00]  ),
       NASA(   [1000.0, 4000.0], [7.670981000e+00, 2.748749000e-03,
                -4.370943000e-07,
                -6.455599000e-11, 1.663887000e-14,
                6.259722000e+04, -1.236890000e+01]  )
               ),
    transport = gas_transport(
                   geom = "nonlinear",
                   diam = 4.1, 
                   well_depth = 209.0, 
                   polar = 0.0, 
                   rot_relax = 1.0) 
        )

species(name = "ch4",
    atoms = "C:  1  H:  4", 
    thermo = (
       NASA(   [300.0, 1000.0], [7.787415000e-01, 1.747668000e-02,
                -2.783409000e-05, 3.049708000e-08,
                -1.223931000e-11,
                -9.825229000e+03, 1.372219000e+01]  ),
       NASA(   [1000.0, 5000.0], [1.683479000e+00, 1.023724000e-02,
                -3.875129000e-06, 6.785585000e-10,
                -4.503423000e-14,
                -1.008079000e+04, 9.623395000e+00]  )
               ),
    transport = gas_transport(
                   geom = "nonlinear",
                   diam = 3.7460000000000004, 
                   well_depth = 141.4, 
                   polar = 2.6, 
                   rot_relax = 13.0) 
        )

species(name = "oh",
    atoms = "H:  1  O:  1", 
    thermo = (
       NASA(   [300.0, 1000.0], [3.637266000e+00, 1.850910000e-04,
                -1.676165000e-06, 2.387203000e-09,
                -8.431442000e-13, 3.606782000e+03,
                1.358860000e+00]  ),
       NASA(   [1000.0, 5000.0], [2.882730000e+00, 1.013974000e-03,
                -2.276877000e-07, 2.174684000e-11,
                -5.126305000e-16, 3.886888000e+03,
                5.595712000e+00]  )
               ),
    transport = gas_transport(
                   geom = "linear",
                   diam = 2.7500000000000004, 
                   well_depth = 80.0, 
                   polar = 0.0, 
                   rot_relax = 0.0) 
        )

species(name = "c2h4oh",
    atoms = "C:  2  H:  5  O:  1", 
    thermo = (
       NASA(   [300.0, 1405.0], [7.761576060e-01, 2.910025140e-02,
                -2.139805690e-05, 8.168338940e-09,
                -1.255916000e-12,
                -5.468083960e+03, 2.210601850e+01]  ),
       NASA(   [1405.0, 5000.0], [8.755444960e+00, 9.494531470e-03,
                -3.088035750e-06, 4.635376210e-10,
                -2.627300440e-14,
                -8.096020470e+03,
                -2.032719290e+01]  )
               ),
    transport = gas_transport(
                   geom = "nonlinear",
                   diam = 4.41, 
                   well_depth = 470.6, 
                   polar = 0.0, 
                   rot_relax = 1.5) 
        )

species(name = "o2",
    atoms = "O:  2", 
    thermo = (
       NASA(   [300.0, 1000.0], [3.212936000e+00, 1.127486000e-03,
                -5.756150000e-07, 1.313877000e-09,
                -8.768554000e-13,
                -1.005249000e+03, 6.034738000e+00]  ),
       NASA(   [1000.0, 5000.0], [3.697578000e+00, 6.135197000e-04,
                -1.258842000e-07, 1.775281000e-11,
                -1.136435000e-15,
                -1.233930000e+03, 3.189166000e+00]  )
               ),
    transport = gas_transport(
                   geom = "linear",
                   diam = 3.458, 
                   well_depth = 107.4, 
                   polar = 1.6, 
                   rot_relax = 3.8) 
        )

species(name = "ac3h5",
    atoms = "C:  3  H:  5", 
    thermo = (
       NASA(   [300.0, 1378.0], [9.730138190e-01, 2.818185970e-02,
                -1.629388090e-05, 3.961943250e-09,
                -2.257045370e-13, 1.852307530e+04,
                1.932014080e+01]  ),
       NASA(   [1378.0, 5000.0], [9.757624720e+00, 1.006151540e-02,
                -3.406084530e-06, 5.256966410e-10,
                -3.039173130e-14, 1.528457330e+04,
                -2.862371720e+01]  )
               ),
    transport = gas_transport(
                   geom = "nonlinear",
                   diam = 4.22, 
                   well_depth = 316.0, 
                   polar = 0.0, 
                   rot_relax = 1.0) 
        )

species(name = "sc3h5",
    atoms = "C:  3  H:  5", 
    thermo = (
       NASA(   [300.0, 1000.0], [3.385811000e+00, 1.404534000e-02,
                3.204127000e-06, -3.824120000e-09,
                -9.053742000e-13, 2.909066000e+04,
                1.126649000e+01]  ),
       NASA(   [1000.0, 4000.0], [9.101018000e+00, 7.964168000e-03,
                -7.884945000e-07,
                -4.562036000e-10, 8.529212000e-14,
                2.670680000e+04, -2.150559000e+01]  )
               ),
    transport = gas_transport(
                   geom = "nonlinear",
                   diam = 4.22, 
                   well_depth = 316.0, 
                   polar = 0.0, 
                   rot_relax = 1.0) 
        )

species(name = "c2h4",
    atoms = "C:  2  H:  4", 
    thermo = (
       NASA(   [300.0, 1000.0], [-8.614880000e-01, 2.796163000e-02,
                -3.388677000e-05, 2.785152000e-08,
                -9.737879000e-12, 5.573046000e+03,
                2.421149000e+01]  ),
       NASA(   [1000.0, 5000.0], [3.528419000e+00, 1.148518000e-02,
                -4.418385000e-06, 7.844601000e-10,
                -5.266848000e-14, 4.428289000e+03,
                2.230389000e+00]  )
               ),
    transport = gas_transport(
                   geom = "nonlinear",
                   diam = 3.496, 
                   well_depth = 238.4, 
                   polar = 0.0, 
                   rot_relax = 1.5) 
        )

species(name = "pc3h4",
    atoms = "C:  3  H:  4", 
    thermo = (
       NASA(   [300.0, 1400.0], [3.029730000e+00, 1.498961000e-02,
                -1.398500000e-06,
                -3.969619000e-09, 1.388217000e-12,
                2.148408000e+04, 8.004594000e+00]  ),
       NASA(   [1400.0, 4000.0], [9.768102000e+00, 5.219151000e-03,
                -3.753140000e-07,
                -2.992191000e-10, 5.107878000e-14,
                1.860277000e+04, -3.020678000e+01]  )
               ),
    transport = gas_transport(
                   geom = "linear",
                   diam = 4.29, 
                   well_depth = 324.8, 
                   polar = 0.0, 
                   rot_relax = 1.0) 
        )

species(name = "ch2",
    atoms = "C:  1  H:  2", 
    thermo = (
       NASA(   [300.0, 1350.0], [3.496239890e+00, 2.202586450e-03,
                -4.238287990e-07, 1.364847060e-11,
                4.319373720e-15, 4.591927710e+04,
                2.949643540e+00]  ),
       NASA(   [1350.0, 5000.0], [3.443104660e+00, 2.326380110e-03,
                -5.331479980e-07, 5.740439680e-11,
                -2.426948490e-15, 4.593757430e+04,
                3.234847140e+00]  )
               ),
    transport = gas_transport(
                   geom = "linear",
                   diam = 3.8, 
                   well_depth = 144.0, 
                   polar = 0.0, 
                   rot_relax = 0.0) 
        )

species(name = "ch2chch2o",
    atoms = "C:  3  H:  5  O:  1", 
    thermo = (
       NASA(   [300.0, 1380.0], [1.198225820e+00, 3.055798370e-02,
                -1.806302760e-05, 4.861500330e-09,
                -4.198545620e-13, 9.707995660e+03,
                1.985556520e+01]  ),
       NASA(   [1380.0, 5000.0], [1.025517520e+01, 1.149837200e-02,
                -3.846456590e-06, 5.889103460e-10,
                -3.385579230e-14, 6.391425920e+03,
                -2.946656110e+01]  )
               ),
    transport = gas_transport(
                   geom = "nonlinear",
                   diam = 4.820000000000001, 
                   well_depth = 424.6, 
                   polar = 0.0, 
                   rot_relax = 1.0) 
        )

species(name = "ch3chco",
    atoms = "C:  3  H:  4  O:  1", 
    thermo = (
       NASA(   [300.0, 1392.0], [2.691873110e+00, 2.497613960e-02,
                -1.617121070e-05, 5.463911150e-09,
                -7.624966440e-13,
                -1.187588050e+04, 1.198981010e+01]  ),
       NASA(   [1392.0, 5000.0], [9.403867960e+00, 9.909948600e-03,
                -3.341306050e-06, 5.137870160e-10,
                -2.961022540e-14,
                -1.427712810e+04,
                -2.429020250e+01]  )
               ),
    transport = gas_transport(
                   geom = "nonlinear",
                   diam = 4.12, 
                   well_depth = 443.2, 
                   polar = 0.0, 
                   rot_relax = 1.0) 
        )

species(name = "ch2oh",
    atoms = "C:  1  H:  3  O:  1", 
    thermo = (
       NASA(   [300.0, 1410.0], [2.600678490e+00, 1.284478540e-02,
                -8.337961850e-06, 2.757276060e-09,
                -3.570411060e-13,
                -2.334787240e+03, 1.132723070e+01]  ),
       NASA(   [1410.0, 5000.0], [6.001278030e+00, 4.987215680e-03,
                -1.609535150e-06, 2.402271350e-10,
                -1.355827000e-14,
                -3.501570980e+03,
                -6.928368440e+00]  )
               ),
    transport = gas_transport(
                   geom = "nonlinear",
                   diam = 3.6900000000000004, 
                   well_depth = 417.0, 
                   polar = 0.0, 
                   rot_relax = 2.0, 
                   dipole= 1.7000004851748343) 
        )

species(name = "hcooh",
    atoms = "C:  1  H:  2  O:  2", 
    thermo = (
       NASA(   [300.0, 1500.0], [9.326031000e-01, 1.891002000e-02,
                -1.554964000e-05, 7.290031000e-09,
                -1.483695000e-12,
                -4.760071000e+04, 1.950653000e+01]  ),
       NASA(   [1500.0, 4000.0], [7.959698000e+00, 3.024532000e-03,
                -3.434242000e-07,
                -1.326767000e-10, 2.520240000e-14,
                -5.027445000e+04,
                -1.872208000e+01]  )
               ),
    transport = gas_transport(
                   geom = "nonlinear",
                   diam = 3.97, 
                   well_depth = 436.0, 
                   polar = 0.0, 
                   rot_relax = 2.0) 
        )

species(name = "o",
    atoms = "O:  1", 
    thermo = (
       NASA(   [300.0, 1000.0], [2.946429000e+00, -1.638166000e-03,
                2.421032000e-06, -1.602843000e-09,
                3.890696000e-13, 2.914764000e+04,
                2.963995000e+00]  ),
       NASA(   [1000.0, 5000.0], [2.542060000e+00, -2.755062000e-05,
                -3.102803000e-09, 4.551067000e-12,
                -4.368052000e-16, 2.923080000e+04,
                4.920308000e+00]  )
               ),
    transport = gas_transport(
                   geom = "atom",
                   diam = 2.7500000000000004, 
                   well_depth = 80.0, 
                   polar = 0.0, 
                   rot_relax = 0.0) 
        )

species(name = "hcco",
    atoms = "C:  2  H:  1  O:  1", 
    thermo = (
       NASA(   [300.0, 1000.0], [5.047965000e+00, 4.453478000e-03,
                2.268283000e-07, -1.482095000e-09,
                2.250742000e-13, 1.965892000e+04,
                4.818439000e-01]  ),
       NASA(   [1000.0, 4000.0], [6.758073000e+00, 2.000400000e-03,
                -2.027607000e-07,
                -1.041132000e-10, 1.965165000e-14,
                1.901513000e+04, -9.071262000e+00]  )
               ),
    transport = gas_transport(
                   geom = "nonlinear",
                   diam = 2.5, 
                   well_depth = 150.0, 
                   polar = 0.0, 
                   rot_relax = 1.0) 
        )

species(name = "c2h5",
    atoms = "C:  2  H:  5", 
    thermo = (
       NASA(   [300.0, 1375.0], [1.473748520e+00, 1.636066110e-02,
                -4.328968260e-06,
                -1.172706650e-09, 5.723258830e-13,
                1.333269920e+04, 1.663498520e+01]  ),
       NASA(   [1375.0, 5000.0], [5.601160910e+00, 1.069770810e-02,
                -3.635047800e-06, 5.618166540e-10,
                -3.249147140e-14, 1.145398450e+04,
                -7.022524080e+00]  )
               ),
    transport = gas_transport(
                   geom = "nonlinear",
                   diam = 4.35, 
                   well_depth = 247.5, 
                   polar = 0.0, 
                   rot_relax = 1.5) 
        )

species(name = "c2h3",
    atoms = "C:  2  H:  3", 
    thermo = (
       NASA(   [300.0, 1671.0], [2.739259420e+00, 7.030115910e-03,
                2.366472990e-06, -3.595697370e-09,
                8.917564910e-13, 3.428689790e+04,
                1.015315350e+01]  ),
       NASA(   [1671.0, 5000.0], [3.960477130e+00, 7.994260130e-03,
                -2.856080870e-06, 4.583508130e-10,
                -2.725701400e-14, 3.351535440e+04,
                2.256634140e+00]  )
               ),
    transport = gas_transport(
                   geom = "nonlinear",
                   diam = 3.7210000000000005, 
                   well_depth = 265.3, 
                   polar = 0.0, 
                   rot_relax = 1.0) 
        )

species(name = "nc3h7",
    atoms = "C:  3  H:  7", 
    thermo = (
       NASA(   [300.0, 1390.0], [1.133665710e-01, 3.541713890e-02,
                -2.280736970e-05, 7.887468060e-09,
                -1.168569610e-12, 1.068215950e+04,
                2.455207580e+01]  ),
       NASA(   [1390.0, 5000.0], [9.437993500e+00, 1.471606810e-02,
                -5.033384200e-06, 7.813174970e-10,
                -4.352092600e-14, 7.273965080e+03,
                -2.601367380e+01]  )
               ),
    transport = gas_transport(
                   geom = "nonlinear",
                   diam = 4.81, 
                   well_depth = 303.4, 
                   polar = 0.0, 
                   rot_relax = 1.0) 
        )

species(name = "hoc2h4o2",
    atoms = "C:  2  H:  5  O:  3", 
    thermo = (
       NASA(   [300.0, 1395.0], [3.588116090e+00, 2.994141610e-02,
                -2.351565490e-05, 1.126355250e-08,
                -2.286636860e-12,
                -2.174094350e+04, 1.421667290e+01]  ),
       NASA(   [1395.0, 5000.0], [9.223399150e+00, 1.413463580e-02,
                -4.752830250e-06, 7.287959640e-10,
                -4.189696290e-14,
                -2.359840310e+04,
                -1.538473860e+01]  )
               ),
    transport = gas_transport(
                   geom = "nonlinear",
                   diam = 4.41, 
                   well_depth = 470.6, 
                   polar = 0.0, 
                   rot_relax = 1.5) 
        )

species(name = "h2o",
    atoms = "H:  2  O:  1", 
    thermo = (
       NASA(   [300.0, 1000.0], [3.386842000e+00, 3.474982000e-03,
                -6.354696000e-06, 6.968581000e-09,
                -2.506588000e-12,
                -3.020811000e+04, 2.590233000e+00]  ),
       NASA(   [1000.0, 5000.0], [2.672146000e+00, 3.056293000e-03,
                -8.730260000e-07, 1.200996000e-10,
                -6.391618000e-15,
                -2.989921000e+04, 6.862817000e+00]  )
               ),
    transport = gas_transport(
                   geom = "nonlinear",
                   diam = 2.6050000000000004, 
                   well_depth = 572.4, 
                   polar = 0.0, 
                   rot_relax = 4.0, 
                   dipole= 1.8440005262719967) 
        )

species(name = "ch3oh",
    atoms = "C:  1  H:  4  O:  1", 
    thermo = (
       NASA(   [300.0, 1000.0], [2.660115000e+00, 7.341508000e-03,
                7.170051000e-06, -8.793194000e-09,
                2.390570000e-12, -2.535348000e+04,
                1.123263000e+01]  ),
       NASA(   [1000.0, 5000.0], [4.029061000e+00, 9.376593000e-03,
                -3.050254000e-06, 4.358793000e-10,
                -2.224723000e-14,
                -2.615791000e+04, 2.378196000e+00]  )
               ),
    transport = gas_transport(
                   geom = "nonlinear",
                   diam = 3.6260000000000003, 
                   well_depth = 481.8, 
                   polar = 0.0, 
                   rot_relax = 1.0) 
        )

species(name = "hcoh",
    atoms = "C:  1  H:  2  O:  1", 
    thermo = (
       NASA(   [300.0, 1398.0], [-2.821574210e+00, 3.573317020e-02,
                -3.808615800e-05, 1.862059510e-08,
                -3.459578380e-12, 1.129566720e+04,
                3.484877570e+01]  ),
       NASA(   [1398.0, 5000.0], [9.187492720e+00, 1.520111520e-03,
                -6.276035160e-07, 1.097279890e-10,
                -6.896551280e-15, 7.813645930e+03,
                -2.734342140e+01]  )
               ),
    transport = gas_transport(
                   geom = "nonlinear",
                   diam = 3.59, 
                   well_depth = 498.00000000000006, 
                   polar = 0.0, 
                   rot_relax = 1.0) 
        )

species(name = "ch2(s)",
    atoms = "C:  1  H:  2", 
    thermo = (
       NASA(   [300.0, 1359.0], [3.323407010e+00, 2.280625790e-03,
                -2.481560160e-07,
                -1.020653860e-10, 2.488266190e-14,
                5.049544690e+04, 3.094014970e+00]  ),
       NASA(   [1359.0, 5000.0], [3.096271800e+00, 2.808391850e-03,
                -7.136145260e-07, 8.421362980e-11,
                -3.846408280e-15, 5.057396970e+04,
                4.313922690e+00]  )
               ),
    transport = gas_transport(
                   geom = "linear",
                   diam = 3.8, 
                   well_depth = 144.0, 
                   polar = 0.0, 
                   rot_relax = 0.0) 
        )

species(name = "n2",
    atoms = "N:  2", 
    thermo = (
       NASA(   [300.0, 1000.0], [3.298677000e+00, 1.408240000e-03,
                -3.963222000e-06, 5.641515000e-09,
                -2.444855000e-12,
                -1.020900000e+03, 3.950372000e+00]  ),
       NASA(   [1000.0, 5000.0], [2.926640000e+00, 1.487977000e-03,
                -5.684761000e-07, 1.009704000e-10,
                -6.753351000e-15,
                -9.227977000e+02, 5.980528000e+00]  )
               ),
    transport = gas_transport(
                   geom = "linear",
                   diam = 3.621, 
                   well_depth = 97.53, 
                   polar = 1.76, 
                   rot_relax = 4.0) 
        )

species(name = "c2h",
    atoms = "C:  2  H:  1", 
    thermo = (
       NASA(   [300.0, 1000.0], [2.737704000e+00, 8.048446000e-03,
                -9.244310000e-06, 6.525259000e-09,
                -1.939580000e-12, 6.683813000e+04,
                7.300220000e+00]  ),
       NASA(   [1000.0, 4000.0], [3.986367000e+00, 3.143123000e-03,
                -1.267243000e-06, 2.924363000e-10,
                -2.716320000e-14, 6.655884000e+04,
                1.191063000e+00]  )
               ),
    transport = gas_transport(
                   geom = "linear",
                   diam = 3.7210000000000005, 
                   well_depth = 265.3, 
                   polar = 0.0, 
                   rot_relax = 2.5) 
        )

species(name = "ac3h4",
    atoms = "C:  3  H:  4", 
    thermo = (
       NASA(   [300.0, 1400.0], [2.539831000e+00, 1.633437000e-02,
                -1.764950000e-06,
                -4.647365000e-09, 1.729131000e-12,
                2.251243000e+04, 9.935702000e+00]  ),
       NASA(   [1400.0, 4000.0], [9.776256000e+00, 5.302138000e-03,
                -3.701118000e-07,
                -3.026386000e-10, 5.089581000e-14,
                1.954972000e+04, -3.077061000e+01]  )
               ),
    transport = gas_transport(
                   geom = "linear",
                   diam = 4.29, 
                   well_depth = 324.8, 
                   polar = 0.0, 
                   rot_relax = 1.0) 
        )

species(name = "ch3ch2o",
    atoms = "C:  2  H:  5  O:  1", 
    thermo = (
       NASA(   [300.0, 1405.0], [-2.712963780e-01, 2.988398120e-02,
                -1.970905480e-05, 6.373398930e-09,
                -7.779650540e-13,
                -3.163971960e+03, 2.477060030e+01]  ),
       NASA(   [1405.0, 5000.0], [8.311823920e+00, 1.034263190e-02,
                -3.391860890e-06, 5.122126170e-10,
                -2.916017130e-14,
                -6.130979540e+03,
                -2.139855810e+01]  )
               ),
    transport = gas_transport(
                   geom = "nonlinear",
                   diam = 4.41, 
                   well_depth = 470.6, 
                   polar = 0.0, 
                   rot_relax = 1.5) 
        )

species(name = "ch3choh",
    atoms = "C:  2  H:  5  O:  1", 
    thermo = (
       NASA(   [300.0, 1524.0], [2.100268060e+00, 1.926266790e-02,
                -5.174374360e-06,
                -1.961905820e-09, 9.363970600e-13,
                -6.128730360e+03, 1.409093020e+01]  ),
       NASA(   [1524.0, 5000.0], [7.954327470e+00, 1.050081700e-02,
                -3.506315900e-06, 5.361746080e-10,
                -3.079784590e-14,
                -8.621997680e+03,
                -1.904111290e+01]  )
               ),
    transport = gas_transport(
                   geom = "nonlinear",
                   diam = 4.41, 
                   well_depth = 470.6, 
                   polar = 0.0, 
                   rot_relax = 1.5) 
        )

species(name = "ch2o",
    atoms = "C:  1  H:  2  O:  1", 
    thermo = (
       NASA(   [300.0, 1000.0], [1.652731000e+00, 1.263144000e-02,
                -1.888168000e-05, 2.050031000e-08,
                -8.413237000e-12,
                -1.486540000e+04, 1.378482000e+01]  ),
       NASA(   [1000.0, 5000.0], [2.995606000e+00, 6.681321000e-03,
                -2.628955000e-06, 4.737153000e-10,
                -3.212517000e-14,
                -1.532037000e+04, 6.912572000e+00]  )
               ),
    transport = gas_transport(
                   geom = "nonlinear",
                   diam = 3.59, 
                   well_depth = 498.00000000000006, 
                   polar = 0.0, 
                   rot_relax = 2.0) 
        )

species(name = "c3h6",
    atoms = "C:  3  H:  6", 
    thermo = (
       NASA(   [300.0, 1000.0], [1.493307000e+00, 2.092518000e-02,
                4.486794000e-06, -1.668912000e-08,
                7.158146000e-12, 1.074826000e+03,
                1.614534000e+01]  ),
       NASA(   [1000.0, 5000.0], [6.732257000e+00, 1.490834000e-02,
                -4.949899000e-06, 7.212022000e-10,
                -3.766204000e-14,
                -9.235703000e+02,
                -1.331335000e+01]  )
               ),
    transport = gas_transport(
                   geom = "nonlinear",
                   diam = 4.14, 
                   well_depth = 307.8, 
                   polar = 0.0, 
                   rot_relax = 1.0) 
        )

species(name = "h2o2",
    atoms = "H:  2  O:  2", 
    thermo = (
       NASA(   [300.0, 1000.0], [3.388754000e+00, 6.569226000e-03,
                -1.485013000e-07,
                -4.625806000e-09, 2.471515000e-12,
                -1.766315000e+04, 6.785363000e+00]  ),
       NASA(   [1000.0, 5000.0], [4.573167000e+00, 4.336136000e-03,
                -1.474689000e-06, 2.348904000e-10,
                -1.431654000e-14,
                -1.800696000e+04, 5.011370000e-01]  )
               ),
    transport = gas_transport(
                   geom = "nonlinear",
                   diam = 3.458, 
                   well_depth = 107.4, 
                   polar = 0.0, 
                   rot_relax = 3.8) 
        )

species(name = "h",
    atoms = "H:  1", 
    thermo = (
       NASA(   [300.0, 1000.0], [2.500000000e+00, 0.000000000e+00,
                0.000000000e+00, 0.000000000e+00,
                0.000000000e+00, 2.547163000e+04,
                -4.601176000e-01]  ),
       NASA(   [1000.0, 5000.0], [2.500000000e+00, 0.000000000e+00,
                0.000000000e+00, 0.000000000e+00,
                0.000000000e+00, 2.547163000e+04,
                -4.601176000e-01]  )
               ),
    transport = gas_transport(
                   geom = "atom",
                   diam = 2.05, 
                   well_depth = 145.0, 
                   polar = 0.0, 
                   rot_relax = 0.0) 
        )

species(name = "co2",
    atoms = "C:  1  O:  2", 
    thermo = (
       NASA(   [300.0, 1000.0], [2.275725000e+00, 9.922072000e-03,
                -1.040911000e-05, 6.866687000e-09,
                -2.117280000e-12,
                -4.837314000e+04, 1.018849000e+01]  ),
       NASA(   [1000.0, 5000.0], [4.453623000e+00, 3.140169000e-03,
                -1.278411000e-06, 2.393997000e-10,
                -1.669033000e-14,
                -4.896696000e+04,
                -9.553959000e-01]  )
               ),
    transport = gas_transport(
                   geom = "linear",
                   diam = 3.763, 
                   well_depth = 244.0, 
                   polar = 2.6500000000000004, 
                   rot_relax = 2.1) 
        )

species(name = "ch2co",
    atoms = "C:  2  H:  2  O:  1", 
    thermo = (
       NASA(   [300.0, 1000.0], [2.974971000e+00, 1.211871000e-02,
                -2.345046000e-06,
                -6.466685000e-09, 3.905649000e-12,
                -7.632637000e+03, 8.673553000e+00]  ),
       NASA(   [1000.0, 5000.0], [6.038817000e+00, 5.804840000e-03,
                -1.920954000e-06, 2.794485000e-10,
                -1.458868000e-14,
                -8.583402000e+03,
                -7.657581000e+00]  )
               ),
    transport = gas_transport(
                   geom = "nonlinear",
                   diam = 3.97, 
                   well_depth = 436.0, 
                   polar = 0.0, 
                   rot_relax = 2.0) 
        )

species(name = "c2h6",
    atoms = "C:  2  H:  6", 
    thermo = (
       NASA(   [300.0, 1000.0], [1.462539000e+00, 1.549467000e-02,
                5.780507000e-06, -1.257832000e-08,
                4.586267000e-12, -1.123918000e+04,
                1.443229000e+01]  ),
       NASA(   [1000.0, 4000.0], [4.825938000e+00, 1.384043000e-02,
                -4.557259000e-06, 6.724967000e-10,
                -3.598161000e-14,
                -1.271779000e+04,
                -5.239507000e+00]  )
               ),
    transport = gas_transport(
                   geom = "nonlinear",
                   diam = 4.35, 
                   well_depth = 247.5, 
                   polar = 0.0, 
                   rot_relax = 1.5) 
        )

species(name = "h2ccch",
    atoms = "C:  3  H:  3", 
    thermo = (
       NASA(   [300.0, 1000.0], [4.754200000e+00, 1.108028000e-02,
                2.793323000e-07, -5.479212000e-09,
                1.949629000e-12, 3.988883000e+04,
                5.854549000e-01]  ),
       NASA(   [1000.0, 4000.0], [8.831047000e+00, 4.357195000e-03,
                -4.109067000e-07,
                -2.368723000e-10, 4.376520000e-14,
                3.847420000e+04, -2.177919000e+01]  )
               ),
    transport = gas_transport(
                   geom = "nonlinear",
                   diam = 4.76, 
                   well_depth = 252.0, 
                   polar = 0.0, 
                   rot_relax = 1.0) 
        )

species(name = "ch3",
    atoms = "C:  1  H:  3", 
    thermo = (
       NASA(   [300.0, 1000.0], [2.430443000e+00, 1.112410000e-02,
                -1.680220000e-05, 1.621829000e-08,
                -5.864953000e-12, 1.642378000e+04,
                6.789794000e+00]  ),
       NASA(   [1000.0, 5000.0], [2.844052000e+00, 6.137974000e-03,
                -2.230345000e-06, 3.785161000e-10,
                -2.452159000e-14, 1.643781000e+04,
                5.452697000e+00]  )
               ),
    transport = gas_transport(
                   geom = "linear",
                   diam = 3.8, 
                   well_depth = 144.0, 
                   polar = 0.0, 
                   rot_relax = 0.0) 
        )

species(name = "ch2chco",
    atoms = "C:  3  H:  3  O:  1", 
    thermo = (
       NASA(   [300.0, 1391.0], [7.833704500e-01, 2.903538990e-02,
                -2.288469270e-05, 9.256452340e-09,
                -1.522132380e-12, 6.134095250e+03,
                2.208589020e+01]  ),