!---------------------------------------------------------------------------
!  
!---------------------------------------------------------------------------
ELEMENTS
C H O N
END
SPECIES
ch2hco          c3h2            ch4             oh              
c2h4oh          o2              ac3h5           sc3h5           c2h4            
pc3h4           ch2             ch2chch2o       ch3chco         
ch2oh           hcooh           o               hcco            
c2h5            c2h3            nc3h7           hoc2h4o2        h2o             
ch3oh           hcoh            ch2(s)          n2              
c2h             ac3h4           ch3ch2o         ch3choh         
ch2o            c3h6            h2o2            h               co2             
ch2co           c2h6            h2ccch          chocho          
ch3             ch2chco         hco             ch3hco          
h2              ic3h7           ch3o            ch2chcho        c3h8            
ho2             c2o             co              c2h2            
ch              c2h5oh          pc3h5           
END
!---------------------------------------------------------------------------
!  
!---------------------------------------------------------------------------
THERMO ALL
   300.000  1000.000  5000.000
ch2hco                  C   2H   3O   1     G   300.000  5000.000  1000.000    1
 5.97567000e+00 8.13059100e-03-2.74362400e-06 4.07030400e-10-2.17601700e-14    2
 4.90321800e+02-5.04525100e+00 3.40906200e+00 1.07385700e-02 1.89149200e-06    3
-7.15858300e-09 2.86738500e-12 1.52147700e+03 9.55829000e+00                   4
c3h2                    C   3H   2          G   150.000  4000.000  1000.000    1
 7.67098100e+00 2.74874900e-03-4.37094300e-07-6.45559900e-11 1.66388700e-14    2
 6.25972200e+04-1.23689000e+01 3.16671400e+00 2.48257200e-02-4.59163700e-05    3
 4.26801900e-08-1.48215200e-11 6.35042100e+04 8.86944600e+00                   4
ch4                     C   1H   4          G   300.000  5000.000  1000.000    1
 1.68347900e+00 1.02372400e-02-3.87512900e-06 6.78558500e-10-4.50342300e-14    2
-1.00807900e+04 9.62339500e+00 7.78741500e-01 1.74766800e-02-2.78340900e-05    3
 3.04970800e-08-1.22393100e-11-9.82522900e+03 1.37221900e+01                   4
oh                      H   1O   1          G   300.000  5000.000  1000.000    1
 2.88273000e+00 1.01397400e-03-2.27687700e-07 2.17468400e-11-5.12630500e-16    2
 3.88688800e+03 5.59571200e+00 3.63726600e+00 1.85091000e-04-1.67616500e-06    3
 2.38720300e-09-8.43144200e-13 3.60678200e+03 1.35886000e+00                   4
c2h4oh                  C   2H   5O   1     G   300.000  5000.000  1405.000    1
 8.75544496e+00 9.49453147e-03-3.08803575e-06 4.63537621e-10-2.62730044e-14    2
-8.09602047e+03-2.03271929e+01 7.76157606e-01 2.91002514e-02-2.13980569e-05    3
 8.16833894e-09-1.25591600e-12-5.46808396e+03 2.21060185e+01                   4
o2                      O   2               G   300.000  5000.000  1000.000    1
 3.69757800e+00 6.13519700e-04-1.25884200e-07 1.77528100e-11-1.13643500e-15    2
-1.23393000e+03 3.18916600e+00 3.21293600e+00 1.12748600e-03-5.75615000e-07    3
 1.31387700e-09-8.76855400e-13-1.00524900e+03 6.03473800e+00                   4
ac3h5                   C   3H   5          G   300.000  5000.000  1378.000    1
 9.75762472e+00 1.00615154e-02-3.40608453e-06 5.25696641e-10-3.03917313e-14    2
 1.52845733e+04-2.86237172e+01 9.73013819e-01 2.81818597e-02-1.62938809e-05    3
 3.96194325e-09-2.25704537e-13 1.85230753e+04 1.93201408e+01                   4
sc3h5                   C   3H   5          G   300.000  4000.000  1000.000    1
 9.10101800e+00 7.96416800e-03-7.88494500e-07-4.56203600e-10 8.52921200e-14    2
 2.67068000e+04-2.15055900e+01 3.38581100e+00 1.40453400e-02 3.20412700e-06    3
-3.82412000e-09-9.05374200e-13 2.90906600e+04 1.12664900e+01                   4
c2h4                    C   2H   4          G   300.000  5000.000  1000.000    1
 3.52841900e+00 1.14851800e-02-4.41838500e-06 7.84460100e-10-5.26684800e-14    2
 4.42828900e+03 2.23038900e+00-8.61488000e-01 2.79616300e-02-3.38867700e-05    3
 2.78515200e-08-9.73787900e-12 5.57304600e+03 2.42114900e+01                   4
pc3h4                   C   3H   4          G   300.000  4000.000  1400.000    1
 9.76810200e+00 5.21915100e-03-3.75314000e-07-2.99219100e-10 5.10787800e-14    2
 1.86027700e+04-3.02067800e+01 3.02973000e+00 1.49896100e-02-1.39850000e-06    3
-3.96961900e-09 1.38821700e-12 2.14840800e+04 8.00459400e+00                   4
ch2                     C   1H   2          G   300.000  5000.000  1350.000    1
 3.44310466e+00 2.32638011e-03-5.33147998e-07 5.74043968e-11-2.42694849e-15    2
 4.59375743e+04 3.23484714e+00 3.49623989e+00 2.20258645e-03-4.23828799e-07    3
 1.36484706e-11 4.31937372e-15 4.59192771e+04 2.94964354e+00                   4
ch2chch2o               C   3H   5O   1     G   300.000  5000.000  1380.000    1
 1.02551752e+01 1.14983720e-02-3.84645659e-06 5.88910346e-10-3.38557923e-14    2
 6.39142592e+03-2.94665611e+01 1.19822582e+00 3.05579837e-02-1.80630276e-05    3
 4.86150033e-09-4.19854562e-13 9.70799566e+03 1.98555652e+01                   4
ch3chco                 C   3H   4O   1     G   300.000  5000.000  1392.000    1
 9.40386796e+00 9.90994860e-03-3.34130605e-06 5.13787016e-10-2.96102254e-14    2
-1.42771281e+04-2.42902025e+01 2.69187311e+00 2.49761396e-02-1.61712107e-05    3
 5.46391115e-09-7.62496644e-13-1.18758805e+04 1.19898101e+01                   4
ch2oh                   C   1H   3O   1     G   300.000  5000.000  1410.000    1
 6.00127803e+00 4.98721568e-03-1.60953515e-06 2.40227135e-10-1.35582700e-14    2
-3.50157098e+03-6.92836844e+00 2.60067849e+00 1.28447854e-02-8.33796185e-06    3
 2.75727606e-09-3.57041106e-13-2.33478724e+03 1.13272307e+01                   4
hcooh                   C   1H   2O   2     G   300.000  4000.000  1500.000    1
 7.95969800e+00 3.02453200e-03-3.43424200e-07-1.32676700e-10 2.52024000e-14    2
-5.02744500e+04-1.87220800e+01 9.32603100e-01 1.89100200e-02-1.55496400e-05    3
 7.29003100e-09-1.48369500e-12-4.76007100e+04 1.95065300e+01                   4
o                       O   1               G   300.000  5000.000  1000.000    1
 2.54206000e+00-2.75506200e-05-3.10280300e-09 4.55106700e-12-4.36805200e-16    2
 2.92308000e+04 4.92030800e+00 2.94642900e+00-1.63816600e-03 2.42103200e-06    3
-1.60284300e-09 3.89069600e-13 2.91476400e+04 2.96399500e+00                   4
hcco                    C   2H   1O   1     G   300.000  4000.000  1000.000    1
 6.75807300e+00 2.00040000e-03-2.02760700e-07-1.04113200e-10 1.96516500e-14    2
 1.90151300e+04-9.07126200e+00 5.04796500e+00 4.45347800e-03 2.26828300e-07    3
-1.48209500e-09 2.25074200e-13 1.96589200e+04 4.81843900e-01                   4
c2h5                    C   2H   5          G   300.000  5000.000  1375.000    1
 5.60116091e+00 1.06977081e-02-3.63504780e-06 5.61816654e-10-3.24914714e-14    2
 1.14539845e+04-7.02252408e+00 1.47374852e+00 1.63606611e-02-4.32896826e-06    3
-1.17270665e-09 5.72325883e-13 1.33326992e+04 1.66349852e+01                   4
c2h3                    C   2H   3          G   300.000  5000.000  1671.000    1
 3.96047713e+00 7.99426013e-03-2.85608087e-06 4.58350813e-10-2.72570140e-14    2
 3.35153544e+04 2.25663414e+00 2.73925942e+00 7.03011591e-03 2.36647299e-06    3
-3.59569737e-09 8.91756491e-13 3.42868979e+04 1.01531535e+01                   4
nc3h7                   C   3H   7          G   300.000  5000.000  1390.000    1
 9.43799350e+00 1.47160681e-02-5.03338420e-06 7.81317497e-10-4.35209260e-14    2
 7.27396508e+03-2.60136738e+01 1.13366571e-01 3.54171389e-02-2.28073697e-05    3
 7.88746806e-09-1.16856961e-12 1.06821595e+04 2.45520758e+01                   4
hoc2h4o2                C   2H   5O   3     G   300.000  5000.000  1395.000    1
 9.22339915e+00 1.41346358e-02-4.75283025e-06 7.28795964e-10-4.18969629e-14    2
-2.35984031e+04-1.53847386e+01 3.58811609e+00 2.99414161e-02-2.35156549e-05    3
 1.12635525e-08-2.28663686e-12-2.17409435e+04 1.42166729e+01                   4
h2o                     H   2O   1          G   300.000  5000.000  1000.000    1
 2.67214600e+00 3.05629300e-03-8.73026000e-07 1.20099600e-10-6.39161800e-15    2
-2.98992100e+04 6.86281700e+00 3.38684200e+00 3.47498200e-03-6.35469600e-06    3
 6.96858100e-09-2.50658800e-12-3.02081100e+04 2.59023300e+00                   4
ch3oh                   C   1H   4O   1     G   300.000  5000.000  1000.000    1
 4.02906100e+00 9.37659300e-03-3.05025400e-06 4.35879300e-10-2.22472300e-14    2
-2.61579100e+04 2.37819600e+00 2.66011500e+00 7.34150800e-03 7.17005100e-06    3
-8.79319400e-09 2.39057000e-12-2.53534800e+04 1.12326300e+01                   4
hcoh                    C   1H   2O   1     G   300.000  5000.000  1398.000    1
 9.18749272e+00 1.52011152e-03-6.27603516e-07 1.09727989e-10-6.89655128e-15    2
 7.81364593e+03-2.73434214e+01-2.82157421e+00 3.57331702e-02-3.80861580e-05    3
 1.86205951e-08-3.45957838e-12 1.12956672e+04 3.48487757e+01                   4
ch2(s)                  C   1H   2          G   300.000  5000.000  1359.000    1
 3.09627180e+00 2.80839185e-03-7.13614526e-07 8.42136298e-11-3.84640828e-15    2
 5.05739697e+04 4.31392269e+00 3.32340701e+00 2.28062579e-03-2.48156016e-07    3
-1.02065386e-10 2.48826619e-14 5.04954469e+04 3.09401497e+00                   4
n2                      N   2               G   300.000  5000.000  1000.000    1
 2.92664000e+00 1.48797700e-03-5.68476100e-07 1.00970400e-10-6.75335100e-15    2
-9.22797700e+02 5.98052800e+00 3.29867700e+00 1.40824000e-03-3.96322200e-06    3
 5.64151500e-09-2.44485500e-12-1.02090000e+03 3.95037200e+00                   4
c2h                     C   2H   1          G   300.000  4000.000  1000.000    1
 3.98636700e+00 3.14312300e-03-1.26724300e-06 2.92436300e-10-2.71632000e-14    2
 6.65588400e+04 1.19106300e+00 2.73770400e+00 8.04844600e-03-9.24431000e-06    3
 6.52525900e-09-1.93958000e-12 6.68381300e+04 7.30022000e+00                   4
ac3h4                   C   3H   4          G   300.000  4000.000  1400.000    1
 9.77625600e+00 5.30213800e-03-3.70111800e-07-3.02638600e-10 5.08958100e-14    2
 1.95497200e+04-3.07706100e+01 2.53983100e+00 1.63343700e-02-1.76495000e-06    3
-4.64736500e-09 1.72913100e-12 2.25124300e+04 9.93570200e+00                   4
ch3ch2o                 C   2H   5O   1     G   300.000  5000.000  1405.000    1
 8.31182392e+00 1.03426319e-02-3.39186089e-06 5.12212617e-10-2.91601713e-14    2
-6.13097954e+03-2.13985581e+01-2.71296378e-01 2.98839812e-02-1.97090548e-05    3
 6.37339893e-09-7.77965054e-13-3.16397196e+03 2.47706003e+01                   4
ch3choh                 C   2H   5O   1     G   300.000  5000.000  1524.000    1
 7.95432747e+00 1.05008170e-02-3.50631590e-06 5.36174608e-10-3.07978459e-14    2
-8.62199768e+03-1.90411129e+01 2.10026806e+00 1.92626679e-02-5.17437436e-06    3
-1.96190582e-09 9.36397060e-13-6.12873036e+03 1.40909302e+01                   4
ch2o                    C   1H   2O   1     G   300.000  5000.000  1000.000    1
 2.99560600e+00 6.68132100e-03-2.62895500e-06 4.73715300e-10-3.21251700e-14    2
-1.53203700e+04 6.91257200e+00 1.65273100e+00 1.26314400e-02-1.88816800e-05    3
 2.05003100e-08-8.41323700e-12-1.48654000e+04 1.37848200e+01                   4
c3h6                    C   3H   6          G   300.000  5000.000  1000.000    1
 6.73225700e+00 1.49083400e-02-4.94989900e-06 7.21202200e-10-3.76620400e-14    2
-9.23570300e+02-1.33133500e+01 1.49330700e+00 2.09251800e-02 4.48679400e-06    3
-1.66891200e-08 7.15814600e-12 1.07482600e+03 1.61453400e+01                   4
h2o2                    H   2O   2          G   300.000  5000.000  1000.000    1
 4.57316700e+00 4.33613600e-03-1.47468900e-06 2.34890400e-10-1.43165400e-14    2
-1.80069600e+04 5.01137000e-01 3.38875400e+00 6.56922600e-03-1.48501300e-07    3
-4.62580600e-09 2.47151500e-12-1.76631500e+04 6.78536300e+00                   4
h                       H   1               G   300.000  5000.000  1000.000    1
 2.50000000e+00 0.00000000e+00 0.00000000e+00 0.00000000e+00 0.00000000e+00    2
 2.54716300e+04-4.60117600e-01 2.50000000e+00 0.00000000e+00 0.00000000e+00    3
 0.00000000e+00 0.00000000e+00 2.54716300e+04-4.60117600e-01                   4
co2                     C   1O   2          G   300.000  5000.000  1000.000    1
 4.45362300e+00 3.14016900e-03-1.27841100e-06 2.39399700e-10-1.66903300e-14    2
-4.89669600e+04-9.55395900e-01 2.27572500e+00 9.92207200e-03-1.04091100e-05    3
 6.86668700e-09-2.11728000e-12-4.83731400e+04 1.01884900e+01                   4
ch2co                   C   2H   2O   1     G   300.000  5000.000  1000.000    1
 6.03881700e+00 5.80484000e-03-1.92095400e-06 2.79448500e-10-1.45886800e-14    2
-8.58340200e+03-7.65758100e+00 2.97497100e+00 1.21187100e-02-2.34504600e-06    3
-6.46668500e-09 3.90564900e-12-7.63263700e+03 8.67355300e+00                   4
c2h6                    C   2H   6          G   300.000  4000.000  1000.000    1
 4.82593800e+00 1.38404300e-02-4.55725900e-06 6.72496700e-10-3.59816100e-14    2
-1.27177900e+04-5.23950700e+00 1.46253900e+00 1.54946700e-02 5.78050700e-06    3
-1.25783200e-08 4.58626700e-12-1.12391800e+04 1.44322900e+01                   4
h2ccch                  C   3H   3          G   300.000  4000.000  1000.000    1
 8.83104700e+00 4.35719500e-03-4.10906700e-07-2.36872300e-10 4.37652000e-14    2
 3.84742000e+04-2.17791900e+01 4.75420000e+00 1.10802800e-02 2.79332300e-07    3
-5.47921200e-09 1.94962900e-12 3.98888300e+04 5.85454900e-01                   4
chocho                  C   2H   2O   2     G   300.000  5000.000  1396.000    1
 9.75438561e+00 4.97645947e-03-1.74410483e-06 2.75586994e-10-1.61969892e-14    2
-2.95832896e+04-2.48038370e+01 1.88105121e+00 2.36386368e-02-1.83443295e-05    3
 6.84842963e-09-9.92733674e-13-2.69280190e+04 1.72994753e+01                   4
ch3                     C   1H   3          G   300.000  5000.000  1000.000    1
 2.84405200e+00 6.13797400e-03-2.23034500e-06 3.78516100e-10-2.45215900e-14    2
 1.64378100e+04 5.45269700e+00 2.43044300e+00 1.11241000e-02-1.68022000e-05    3
 1.62182900e-08-5.86495300e-12 1.64237800e+04 6.78979400e+00                   4
ch2chco                 C   3H   3O   1     G   300.000  5000.000  1391.000    1
 9.48105566e+00 7.77714755e-03-2.71155669e-06 4.26495971e-10-2.49722495e-14    2
 3.20858016e+03-2.42916680e+01 7.83370450e-01 2.90353899e-02-2.28846927e-05    3
 9.25645234e-09-1.52213238e-12 6.13409525e+03 2.20858902e+01                   4
hco                     C   1H   1O   1     G   300.000  5000.000  1000.000    1
 3.55727100e+00 3.34557300e-03-1.33500600e-06 2.47057300e-10-1.71385100e-14    2
 3.91632400e+03 5.55229900e+00 2.89833000e+00 6.19914700e-03-9.62308400e-06    3
 1.08982500e-08-4.57488500e-12 4.15992200e+03 8.98361400e+00                   4
ch3hco                  C   2H   4O   1     G   300.000  5000.000  1000.000    1
 5.86865000e+00 1.07942400e-02-3.64553000e-06 5.41291200e-10-2.89684400e-14    2
-2.26456900e+04-6.01294600e+00 2.50569500e+00 1.33699100e-02 4.67195300e-06    3
-1.12814000e-08 4.26356600e-12-2.12458900e+04 1.33508900e+01                   4
h2                      H   2               G   300.000  5000.000  1000.000    1
 2.99142300e+00 7.00064400e-04-5.63382900e-08-9.23157800e-12 1.58275200e-15    2
-8.35034000e+02-1.35511000e+00 3.29812400e+00 8.24944200e-04-8.14301500e-07    3
-9.47543400e-11 4.13487200e-13-1.01252100e+03-3.29409400e+00                   4
ic3h7                   C   3H   7          G   300.000  5000.000  1373.000    1
 9.73563939e+00 1.43303634e-02-4.88106037e-06 7.56304810e-10-4.38380156e-14    2
 5.67000911e+03-2.78414926e+01 5.86358461e-01 3.21021065e-02-1.69517004e-05    3
 3.98986301e-09-2.87510333e-13 9.26003586e+03 2.26632577e+01                   4
ch3o                    C   1H   3O   1     G   300.000  3000.000  1000.000    1
 3.77080000e+00 7.87149700e-03-2.65638400e-06 3.94443100e-10-2.11261600e-14    2
 1.27832500e+02 2.92957500e+00 2.10620400e+00 7.21659500e-03 5.33847200e-06    3
-7.37763600e-09 2.07561100e-12 9.78601100e+02 1.31521800e+01                   4
ch2chcho                C   3H   4O   1     G   300.000  5000.000  1389.000    1
 9.95950056e+00 9.86563039e-03-3.42048051e-06 5.35978370e-10-3.13001966e-14    2
-1.27456196e+04-2.82995864e+01 5.80467878e-01 3.16384674e-02-2.27932718e-05    3
 8.42301579e-09-1.27327985e-12-9.47146816e+03 2.21264233e+01                   4
c3h8                    C   3H   8          G   300.000  5000.000  1000.000    1
 7.52521700e+00 1.88903400e-02-6.28392400e-06 9.17937300e-10-4.81241000e-14    2
-1.64645500e+04-1.78439000e+01 8.96920800e-01 2.66898600e-02 5.43142500e-06    3
-2.12600100e-08 9.24333000e-12-1.39549200e+04 1.93553300e+01                   4
ho2                     H   1O   2          G   300.000  5000.000  1451.000    1
 4.58311499e+00 1.72730339e-03-6.19183136e-07 9.91939193e-11-5.88221567e-15    2
 3.13365859e+01 3.46199386e-01 3.47629499e+00 2.20467745e-03 1.56841876e-06    3
-2.12755802e-09 5.83140718e-13 6.17073446e+02 7.02308516e+00                   4
c2o                     C   2O   1          G   300.000  5000.000  1000.000    1
 4.84980900e+00 2.94758500e-03-1.09072900e-06 1.79256200e-10-1.11575800e-14    2
 3.28205500e+04-6.45322600e-01 3.36885100e+00 8.24180300e-03-8.76514500e-06    3
 5.56926200e-09-1.54000900e-12 3.31708100e+04 6.71331400e+00                   4
co                      C   1O   1          G   300.000  5000.000  1000.000    1
 3.02507800e+00 1.44268900e-03-5.63082800e-07 1.01858100e-10-6.91095200e-15    2
-1.42683500e+04 6.10821800e+00 3.26245200e+00 1.51194100e-03-3.88175500e-06    3
 5.58194400e-09-2.47495100e-12-1.43105400e+04 4.84889700e+00                   4
c2h2                    C   2H   2          G   300.000  5000.000  1000.000    1
 4.43677000e+00 5.37603900e-03-1.91281700e-06 3.28637900e-10-2.15671000e-14    2
 2.56676600e+04-2.80033800e+00 2.01356200e+00 1.51904500e-02-1.61631900e-05    3
 9.07899200e-09-1.91274600e-12 2.61244400e+04 8.80537800e+00                   4
ch                      C   1H   1          G   300.000  5000.000  1000.000    1
 2.19622300e+00 2.34038100e-03-7.05820100e-07 9.00758200e-11-3.85504000e-15    2
 7.08672300e+04 9.17837300e+00 3.20020200e+00 2.07287600e-03-5.13443100e-06    3
 5.73389000e-09-1.95553300e-12 7.04525900e+04 3.33158800e+00                   4
c2h5oh                  C   2H   6O   1     G   300.000  5000.000  1000.000    1
 6.56243650e+00 1.52042220e-02-5.38967950e-06 8.62250110e-10-5.12897870e-14    2
-3.15256210e+04-9.47302020e+00 4.85869570e+00-3.74017260e-03 6.95553780e-05    3
-8.86547960e-08 3.51688350e-11-2.99961320e+04 4.80185450e+00                   4
pc3h5                   C   3H   5          G   300.000  4000.000  1000.000    1
 9.20976400e+00 7.87141300e-03-7.72452300e-07-4.49735700e-10 8.37727200e-14    2
 2.85396700e+04-2.23237000e+01 3.16186300e+00 1.51810000e-02 2.72265900e-06    3
-5.17711200e-09 5.43528600e-14 3.09554800e+04 1.19797300e+01                   4
END
!---------------------------------------------------------------------------
!  
!---------------------------------------------------------------------------
REACTIONS
h2+oh<=>h+h2o                                      2.140E+08    1.520    3449.00
o+oh<=>h+o2                                        2.020E+14   -0.400       0.00
h2+o<=>h+oh                                        5.060E+04    2.670    6290.00
h+o2(+M)<=>ho2(+M)                                 4.52000E+13    0.000       0.00
     LOW  /  1.05000E+19  -1.257  0.00/
ch4/ 10.0/ co/ 1.9/ co2/ 3.8/ h2/ 0.0/ h2o/ 0.0/ n2/ 0.0/
h+o2(+n2)<=>ho2(+n2)                               4.52000E+13    0.000       0.00
     LOW  /  2.03000E+20  -1.590  0.00/
n2/ 1.0/
h+o2(+h2)<=>ho2(+h2)                               4.52000E+13    0.000       0.00
     LOW  /  1.52000E+19  -1.133  0.00/
h2/ 1.0/
h+o2(+h2o)<=>ho2(+h2o)                             4.52000E+13    0.000       0.00
     LOW  /  2.10000E+23  -2.437  0.00/
h2o/ 1.0/
ho2+oh<=>h2o+o2                                    2.130E+28   -4.827    3500.00
 DUPLICATE
ho2+oh<=>h2o+o2                                    9.100E+14    0.000   10964.00
 DUPLICATE
h+ho2<=>2oh                                        1.500E+14    0.000    1000.00
h+ho2<=>h2+o2                                      6.630E+13    0.000    2126.00
h+ho2<=>h2o+o                                      3.010E+13    0.000    1721.00
ho2+o<=>o2+oh                                      3.250E+13    0.000       0.00
2oh<=>h2o+o                                        3.570E+04    2.400   -2112.00
2h+M<=>h2+M                                        1.000E+18   -1.000       0.00
h2/ 0.0/ h2o/ 0.0/
2h+h2<=>h2+h2                                      9.200E+16   -0.600       0.00
h2/ 1.0/
2h+h2o<=>h2+h2o                                    6.000E+19   -1.250       0.00
h2o/ 1.0/
h+oh+M<=>h2o+M                                     2.210E+22   -2.000       0.00
h2o/ 6.4/
h+o+M<=>oh+M                                       4.710E+18   -1.000       0.00
h2o/ 6.4/
2o+M<=>o2+M                                        1.890E+13    0.000   -1788.00
2ho2<=>h2o2+o2                                     4.200E+14    0.000   11982.00
 DUPLICATE
2ho2<=>h2o2+o2                                     1.300E+11    0.000   -1629.00
 DUPLICATE
2oh(+M)<=>h2o2(+M)                                 1.24000E+14   -0.370       0.00
     LOW  /  3.04000E+30  -4.630  2049.00/
     TROE/   0.47  100.0  2000.0  1000000000000000.0 /
h+h2o2<=>h2+ho2                                    1.980E+06    2.000    2435.00
h+h2o2<=>h2o+oh                                    3.070E+13    0.000    4217.00
h2o2+o<=>ho2+oh                                    9.550E+06    2.000    3970.00
h2o2+oh<=>h2o+ho2                                  2.400E+00    4.042   -2162.00
2ch3(+M)<=>c2h6(+M)                                9.22000E+16   -1.174     636.00
     LOW  /  1.14000E+36  -5.246  1705.00/
     TROE/   0.405  1120.0  69.6  1000000000000000.0 /
co/ 2.0/ co2/ 3.0/ h2/ 2.0/ h2o/ 5.0/
ch3+h(+M)<=>ch4(+M)                                2.14000E+15   -0.400       0.00
     LOW  /  3.31000E+30  -4.000  2108.00/
     TROE/   0.0  1e-15  1e-15  40.0 /
co/ 2.0/ co2/ 3.0/ h2/ 2.0/ h2o/ 5.0/
ch4+h<=>ch3+h2                                     2.200E+04    3.000    8750.00
ch4+oh<=>ch3+h2o                                   4.190E+06    2.000    2547.00
ch4+o<=>ch3+oh                                     6.920E+08    1.560    8485.00
ch4+ho2<=>ch3+h2o2                                 1.120E+13    0.000   24640.00
ch3+ho2<=>ch3o+oh                                  7.000E+12    0.000       0.00
ch3+ho2<=>ch4+o2                                   3.000E+12    0.000       0.00
ch3+o<=>ch2o+h                                     8.000E+13    0.000       0.00
ch3+o2<=>ch3o+o                                    1.450E+13    0.000   29209.00
ch3+o2<=>ch2o+oh                                   2.510E+11    0.000   14640.00
ch3o+h<=>ch3+oh                                    1.000E+13    0.000       0.00
ch2oh+h<=>ch3+oh                                   1.000E+13    0.000       0.00
ch3+oh<=>ch2(s)+h2o                                2.000E+13    0.000     550.00
ch3+oh<=>h2+hcoh                                   1.000E+10    0.000    -415.00
ch3+oh<=>ch2+h2o                                   3.000E+06    2.000    2500.00
ch3+h<=>ch2+h2                                     9.000E+13    0.000   15100.00
ch3+M<=>ch+h2+M                                    6.900E+14    0.000   82469.00
ch3+M<=>ch2+h+M                                    1.900E+16    0.000   91411.00
ch3+oh(+M)<=>ch3oh(+M)                             8.70000E+13    0.100       0.00
     LOW  /  8.84000E+41  -7.400  626.00/
     TROE/   0.025  1e-15  8000.0  3000.0 /
co/ 2.0/ co2/ 3.0/ h2/ 2.0/ h2o/ 10.0/
ch3oh(+M)<=>ch2(s)+h2o(+M)                         2.83700E+10    1.000   83871.00
     LOW  /  1.78000E+49  -8.810  93369.00/
     TROE/   0.9  740.0  979.9999999999999  5100.0 /
co/ 2.0/ co2/ 3.0/ h2/ 2.0/ h2o/ 10.0/
ch3oh(+M)<=>h2+hcoh(+M)                            4.20000E+09    1.120   85604.00
     LOW  /  5.02000E+47  -8.402  94823.00/
     TROE/   0.9  615.0  915.0  4615.0 /
co/ 2.0/ co2/ 3.0/ h2/ 2.0/ h2o/ 10.0/
ch3oh(+M)<=>ch2o+h2(+M)                            2.03000E+09    1.000   91443.00
     LOW  /  9.78400E+47  -8.400  101761.00/
     TROE/   0.9  825.0  1125.0  5700.0 /
co/ 2.0/ co2/ 3.0/ h2/ 2.0/ h2o/ 10.0/
ch3oh+oh<=>ch2oh+h2o                               2.610E+05    2.182   -1344.00
ch3oh+oh<=>ch3o+h2o                                2.620E+06    2.056     916.00
ch3oh+o<=>ch2oh+oh                                 3.880E+05    2.500    3080.00
ch3oh+h<=>ch2oh+h2                                 1.700E+07    2.100    4868.00
ch3oh+h<=>ch3o+h2                                  4.240E+06    2.100    4868.00
ch3+ch3oh<=>ch2oh+ch4                              3.190E+01    3.170    7171.00
ch3+ch3oh<=>ch3o+ch4                               1.450E+01    3.100    6935.00
ch3oh+ho2<=>ch2oh+h2o2                             9.640E+10    0.000   12578.00
ch2o+h(+M)<=>ch3o(+M)                              5.40000E+11    0.454    2600.00
     LOW  /  1.50000E+30  -4.800  5560.00/
     TROE/   0.758  94.0  1555.0  4200.0 /
h2o/ 5.0/
ch2o+h(+M)<=>ch2oh(+M)                             5.40000E+11    0.454    3600.00
     LOW  /  9.10000E+31  -4.820  6530.00/
     TROE/   0.7187  103.00000000000001  1291.0  4160.0 /
h2o/ 5.0/
ch3+ch3o<=>ch2o+ch4                                1.200E+13    0.000       0.00
ch3o+h<=>ch2o+h2                                   2.000E+13    0.000       0.00
ch2oh+h<=>ch2o+h2                                  2.000E+13    0.000       0.00
ch3o+oh<=>ch2o+h2o                                 1.000E+13    0.000       0.00
ch2oh+oh<=>ch2o+h2o                                1.000E+13    0.000       0.00
ch3o+o<=>ch2o+oh                                   1.000E+13    0.000       0.00
ch2oh+o<=>ch2o+oh                                  1.000E+13    0.000       0.00
ch3o+o2<=>ch2o+ho2                                 6.300E+10    0.000    2600.00
ch3o+co<=>ch3+co2                                  4.680E+02    3.160    5380.00
ch2oh+o2<=>ch2o+ho2                                1.570E+15   -1.000       0.00
 DUPLICATE
ch2oh+o2<=>ch2o+ho2                                7.230E+13    0.000    3577.00
 DUPLICATE
hcoh+oh<=>h2o+hco                                  2.000E+13    0.000       0.00
h+hcoh<=>ch2o+h                                    2.000E+14    0.000       0.00
hcoh+o<=>co+h+oh                                   8.000E+13    0.000       0.00
hcoh+o2<=>co+2oh                                   1.000E+13    0.000       0.00
hcoh+o2<=>co2+h2o                                  1.000E+13    0.000       0.00
hcoh<=>ch2o                                        2.100E+19   -3.070   31700.00
ch2+h<=>ch+h2                                      1.000E+18   -1.560       0.00
ch2+oh<=>ch+h2o                                    1.130E+07    2.000    3000.00
ch2+oh<=>ch2o+h                                    2.500E+13    0.000       0.00
ch2+co2<=>ch2o+co                                  1.100E+11    0.000    1000.00
ch2+o<=>co+2h                                      5.000E+13    0.000       0.00
ch2+o<=>co+h2                                      3.000E+13    0.000       0.00
ch2+o2<=>ch2o+o                                    3.290E+21   -3.300    2868.00
ch2+o2<=>co2+2h                                    3.290E+21   -3.300    2868.00
ch2+o2<=>co2+h2                                    1.010E+21   -3.300    1508.00
ch2+o2<=>co+h2o                                    7.280E+19   -2.540    1809.00
ch2+o2<=>hco+oh                                    1.290E+20   -3.300     284.00
ch2+ch3<=>c2h4+h                                   4.000E+13    0.000       0.00
2ch2<=>c2h2+2h                                     4.000E+13    0.000       0.00
ch2+hcco<=>c2h3+co                                 3.000E+13    0.000       0.00
c2h2+ch2<=>h+h2ccch                                1.200E+13    0.000    6600.00
ch2(s)+M<=>ch2+M                                   1.000E+13    0.000       0.00
c2h2/ 4.0/ h/ 12.0/ h2o/ 3.0/
ch2(s)+ch4<=>2ch3                                  4.000E+13    0.000       0.00
c2h6+ch2(s)<=>c2h5+ch3                             1.200E+14    0.000       0.00
ch2(s)+o2<=>co+h+oh                                7.000E+13    0.000       0.00
ch2(s)+h2<=>ch3+h                                  7.000E+13    0.000       0.00
c2h2+ch2(s)<=>h+h2ccch                             1.500E+14    0.000       0.00
c2h4+ch2(s)<=>ac3h5+h                              1.300E+14    0.000       0.00
ch2(s)+o<=>co+2h                                   3.000E+13    0.000       0.00
ch2(s)+oh<=>ch2o+h                                 3.000E+13    0.000       0.00
ch2(s)+h<=>ch+h2                                   3.000E+13    0.000       0.00
ch2(s)+co2<=>ch2o+co                               3.000E+12    0.000       0.00
ch2(s)+ch3<=>c2h4+h                                2.000E+13    0.000       0.00
ch2(s)+ch2co<=>c2h4+co                             1.600E+14    0.000       0.00
ch+o2<=>hco+o                                      3.300E+13    0.000       0.00
ch+o<=>co+h                                        5.700E+13    0.000       0.00
ch+oh<=>h+hco                                      3.000E+13    0.000       0.00
ch+co2<=>co+hco                                    3.400E+12    0.000     690.00
ch+h2o<=>ch2o+h                                    1.170E+15   -0.750       0.00
ch+ch2o<=>ch2co+h                                  9.460E+13    0.000    -515.00
c2h2+ch<=>c3h2+h                                   1.000E+14    0.000       0.00
ch+ch2<=>c2h2+h                                    4.000E+13    0.000       0.00