!---------------------------------------------------------------------------
!  
!---------------------------------------------------------------------------
ELEMENTS
C H O N
END
SPECIES
ch4             oh              c2h4oh          o2              
pc3h4           c2h4            ch3chco         hcooh           o               
c2h5            hcco            c2h3            hoc2h4o2        
h2o             ch3oh           hcoh            ch2(s)          
n2              c2h             ch3ch2o         ch3choh         ch2o            
ch              h               co2             h2ccch          
ch3             ch2chco         hco             ch3hco          
h2              ch3o            ho2             co              c2h2            
h2o2            c2h5oh          pc3h5           
END
!---------------------------------------------------------------------------
!  
!---------------------------------------------------------------------------
THERMO ALL
   300.000  1000.000  5000.000
ch4                     C   1H   4          G   300.000  5000.000  1000.000    1
 1.68347900e+00 1.02372400e-02-3.87512900e-06 6.78558500e-10-4.50342300e-14    2
-1.00807900e+04 9.62339500e+00 7.78741500e-01 1.74766800e-02-2.78340900e-05    3
 3.04970800e-08-1.22393100e-11-9.82522900e+03 1.37221900e+01                   4
oh                      H   1O   1          G   300.000  5000.000  1000.000    1
 2.88273000e+00 1.01397400e-03-2.27687700e-07 2.17468400e-11-5.12630500e-16    2
 3.88688800e+03 5.59571200e+00 3.63726600e+00 1.85091000e-04-1.67616500e-06    3
 2.38720300e-09-8.43144200e-13 3.60678200e+03 1.35886000e+00                   4
c2h4oh                  C   2H   5O   1     G   300.000  5000.000  1405.000    1
 8.75544496e+00 9.49453147e-03-3.08803575e-06 4.63537621e-10-2.62730044e-14    2
-8.09602047e+03-2.03271929e+01 7.76157606e-01 2.91002514e-02-2.13980569e-05    3
 8.16833894e-09-1.25591600e-12-5.46808396e+03 2.21060185e+01                   4
o2                      O   2               G   300.000  5000.000  1000.000    1
 3.69757800e+00 6.13519700e-04-1.25884200e-07 1.77528100e-11-1.13643500e-15    2
-1.23393000e+03 3.18916600e+00 3.21293600e+00 1.12748600e-03-5.75615000e-07    3
 1.31387700e-09-8.76855400e-13-1.00524900e+03 6.03473800e+00                   4
pc3h4                   C   3H   4          G   300.000  4000.000  1400.000    1
 9.76810200e+00 5.21915100e-03-3.75314000e-07-2.99219100e-10 5.10787800e-14    2
 1.86027700e+04-3.02067800e+01 3.02973000e+00 1.49896100e-02-1.39850000e-06    3
-3.96961900e-09 1.38821700e-12 2.14840800e+04 8.00459400e+00                   4
c2h4                    C   2H   4          G   300.000  5000.000  1000.000    1
 3.52841900e+00 1.14851800e-02-4.41838500e-06 7.84460100e-10-5.26684800e-14    2
 4.42828900e+03 2.23038900e+00-8.61488000e-01 2.79616300e-02-3.38867700e-05    3
 2.78515200e-08-9.73787900e-12 5.57304600e+03 2.42114900e+01                   4
ch3chco                 C   3H   4O   1     G   300.000  5000.000  1392.000    1
 9.40386796e+00 9.90994860e-03-3.34130605e-06 5.13787016e-10-2.96102254e-14    2
-1.42771281e+04-2.42902025e+01 2.69187311e+00 2.49761396e-02-1.61712107e-05    3
 5.46391115e-09-7.62496644e-13-1.18758805e+04 1.19898101e+01                   4
hcooh                   C   1H   2O   2     G   300.000  4000.000  1500.000    1
 7.95969800e+00 3.02453200e-03-3.43424200e-07-1.32676700e-10 2.52024000e-14    2
-5.02744500e+04-1.87220800e+01 9.32603100e-01 1.89100200e-02-1.55496400e-05    3
 7.29003100e-09-1.48369500e-12-4.76007100e+04 1.95065300e+01                   4
o                       O   1               G   300.000  5000.000  1000.000    1
 2.54206000e+00-2.75506200e-05-3.10280300e-09 4.55106700e-12-4.36805200e-16    2
 2.92308000e+04 4.92030800e+00 2.94642900e+00-1.63816600e-03 2.42103200e-06    3
-1.60284300e-09 3.89069600e-13 2.91476400e+04 2.96399500e+00                   4
c2h5                    C   2H   5          G   300.000  5000.000  1375.000    1
 5.60116091e+00 1.06977081e-02-3.63504780e-06 5.61816654e-10-3.24914714e-14    2
 1.14539845e+04-7.02252408e+00 1.47374852e+00 1.63606611e-02-4.32896826e-06    3
-1.17270665e-09 5.72325883e-13 1.33326992e+04 1.66349852e+01                   4
hcco                    C   2H   1O   1     G   300.000  4000.000  1000.000    1
 6.75807300e+00 2.00040000e-03-2.02760700e-07-1.04113200e-10 1.96516500e-14    2
 1.90151300e+04-9.07126200e+00 5.04796500e+00 4.45347800e-03 2.26828300e-07    3
-1.48209500e-09 2.25074200e-13 1.96589200e+04 4.81843900e-01                   4
c2h3                    C   2H   3          G   300.000  5000.000  1671.000    1
 3.96047713e+00 7.99426013e-03-2.85608087e-06 4.58350813e-10-2.72570140e-14    2
 3.35153544e+04 2.25663414e+00 2.73925942e+00 7.03011591e-03 2.36647299e-06    3
-3.59569737e-09 8.91756491e-13 3.42868979e+04 1.01531535e+01                   4
hoc2h4o2                C   2H   5O   3     G   300.000  5000.000  1395.000    1
 9.22339915e+00 1.41346358e-02-4.75283025e-06 7.28795964e-10-4.18969629e-14    2
-2.35984031e+04-1.53847386e+01 3.58811609e+00 2.99414161e-02-2.35156549e-05    3
 1.12635525e-08-2.28663686e-12-2.17409435e+04 1.42166729e+01                   4
h2o                     H   2O   1          G   300.000  5000.000  1000.000    1
 2.67214600e+00 3.05629300e-03-8.73026000e-07 1.20099600e-10-6.39161800e-15    2
-2.98992100e+04 6.86281700e+00 3.38684200e+00 3.47498200e-03-6.35469600e-06    3
 6.96858100e-09-2.50658800e-12-3.02081100e+04 2.59023300e+00                   4
ch3oh                   C   1H   4O   1     G   300.000  5000.000  1000.000    1
 4.02906100e+00 9.37659300e-03-3.05025400e-06 4.35879300e-10-2.22472300e-14    2
-2.61579100e+04 2.37819600e+00 2.66011500e+00 7.34150800e-03 7.17005100e-06    3
-8.79319400e-09 2.39057000e-12-2.53534800e+04 1.12326300e+01                   4
hcoh                    C   1H   2O   1     G   300.000  5000.000  1398.000    1
 9.18749272e+00 1.52011152e-03-6.27603516e-07 1.09727989e-10-6.89655128e-15    2
 7.81364593e+03-2.73434214e+01-2.82157421e+00 3.57331702e-02-3.80861580e-05    3
 1.86205951e-08-3.45957838e-12 1.12956672e+04 3.48487757e+01                   4
ch2(s)                  C   1H   2          G   300.000  5000.000  1359.000    1
 3.09627180e+00 2.80839185e-03-7.13614526e-07 8.42136298e-11-3.84640828e-15    2
 5.05739697e+04 4.31392269e+00 3.32340701e+00 2.28062579e-03-2.48156016e-07    3
-1.02065386e-10 2.48826619e-14 5.04954469e+04 3.09401497e+00                   4
n2                      N   2               G   300.000  5000.000  1000.000    1
 2.92664000e+00 1.48797700e-03-5.68476100e-07 1.00970400e-10-6.75335100e-15    2
-9.22797700e+02 5.98052800e+00 3.29867700e+00 1.40824000e-03-3.96322200e-06    3
 5.64151500e-09-2.44485500e-12-1.02090000e+03 3.95037200e+00                   4
c2h                     C   2H   1          G   300.000  4000.000  1000.000    1
 3.98636700e+00 3.14312300e-03-1.26724300e-06 2.92436300e-10-2.71632000e-14    2
 6.65588400e+04 1.19106300e+00 2.73770400e+00 8.04844600e-03-9.24431000e-06    3
 6.52525900e-09-1.93958000e-12 6.68381300e+04 7.30022000e+00                   4
ch3ch2o                 C   2H   5O   1     G   300.000  5000.000  1405.000    1
 8.31182392e+00 1.03426319e-02-3.39186089e-06 5.12212617e-10-2.91601713e-14    2
-6.13097954e+03-2.13985581e+01-2.71296378e-01 2.98839812e-02-1.97090548e-05    3
 6.37339893e-09-7.77965054e-13-3.16397196e+03 2.47706003e+01                   4
ch3choh                 C   2H   5O   1     G   300.000  5000.000  1524.000    1
 7.95432747e+00 1.05008170e-02-3.50631590e-06 5.36174608e-10-3.07978459e-14    2
-8.62199768e+03-1.90411129e+01 2.10026806e+00 1.92626679e-02-5.17437436e-06    3
-1.96190582e-09 9.36397060e-13-6.12873036e+03 1.40909302e+01                   4
ch2o                    C   1H   2O   1     G   300.000  5000.000  1000.000    1
 2.99560600e+00 6.68132100e-03-2.62895500e-06 4.73715300e-10-3.21251700e-14    2
-1.53203700e+04 6.91257200e+00 1.65273100e+00 1.26314400e-02-1.88816800e-05    3
 2.05003100e-08-8.41323700e-12-1.48654000e+04 1.37848200e+01                   4
ch                      C   1H   1          G   300.000  5000.000  1000.000    1
 2.19622300e+00 2.34038100e-03-7.05820100e-07 9.00758200e-11-3.85504000e-15    2
 7.08672300e+04 9.17837300e+00 3.20020200e+00 2.07287600e-03-5.13443100e-06    3
 5.73389000e-09-1.95553300e-12 7.04525900e+04 3.33158800e+00                   4
h                       H   1               G   300.000  5000.000  1000.000    1
 2.50000000e+00 0.00000000e+00 0.00000000e+00 0.00000000e+00 0.00000000e+00    2
 2.54716300e+04-4.60117600e-01 2.50000000e+00 0.00000000e+00 0.00000000e+00    3
 0.00000000e+00 0.00000000e+00 2.54716300e+04-4.60117600e-01                   4
co2                     C   1O   2          G   300.000  5000.000  1000.000    1
 4.45362300e+00 3.14016900e-03-1.27841100e-06 2.39399700e-10-1.66903300e-14    2
-4.89669600e+04-9.55395900e-01 2.27572500e+00 9.92207200e-03-1.04091100e-05    3
 6.86668700e-09-2.11728000e-12-4.83731400e+04 1.01884900e+01                   4
h2ccch                  C   3H   3          G   300.000  4000.000  1000.000    1
 8.83104700e+00 4.35719500e-03-4.10906700e-07-2.36872300e-10 4.37652000e-14    2
 3.84742000e+04-2.17791900e+01 4.75420000e+00 1.10802800e-02 2.79332300e-07    3
-5.47921200e-09 1.94962900e-12 3.98888300e+04 5.85454900e-01                   4
ch3                     C   1H   3          G   300.000  5000.000  1000.000    1
 2.84405200e+00 6.13797400e-03-2.23034500e-06 3.78516100e-10-2.45215900e-14    2
 1.64378100e+04 5.45269700e+00 2.43044300e+00 1.11241000e-02-1.68022000e-05    3
 1.62182900e-08-5.86495300e-12 1.64237800e+04 6.78979400e+00                   4
ch2chco                 C   3H   3O   1     G   300.000  5000.000  1391.000    1
 9.48105566e+00 7.77714755e-03-2.71155669e-06 4.26495971e-10-2.49722495e-14    2
 3.20858016e+03-2.42916680e+01 7.83370450e-01 2.90353899e-02-2.28846927e-05    3
 9.25645234e-09-1.52213238e-12 6.13409525e+03 2.20858902e+01                   4
hco                     C   1H   1O   1     G   300.000  5000.000  1000.000    1
 3.55727100e+00 3.34557300e-03-1.33500600e-06 2.47057300e-10-1.71385100e-14    2
 3.91632400e+03 5.55229900e+00 2.89833000e+00 6.19914700e-03-9.62308400e-06    3
 1.08982500e-08-4.57488500e-12 4.15992200e+03 8.98361400e+00                   4
ch3hco                  C   2H   4O   1     G   300.000  5000.000  1000.000    1
 5.86865000e+00 1.07942400e-02-3.64553000e-06 5.41291200e-10-2.89684400e-14    2
-2.26456900e+04-6.01294600e+00 2.50569500e+00 1.33699100e-02 4.67195300e-06    3
-1.12814000e-08 4.26356600e-12-2.12458900e+04 1.33508900e+01                   4
h2                      H   2               G   300.000  5000.000  1000.000    1
 2.99142300e+00 7.00064400e-04-5.63382900e-08-9.23157800e-12 1.58275200e-15    2
-8.35034000e+02-1.35511000e+00 3.29812400e+00 8.24944200e-04-8.14301500e-07    3
-9.47543400e-11 4.13487200e-13-1.01252100e+03-3.29409400e+00                   4
ch3o                    C   1H   3O   1     G   300.000  3000.000  1000.000    1
 3.77080000e+00 7.87149700e-03-2.65638400e-06 3.94443100e-10-2.11261600e-14    2
 1.27832500e+02 2.92957500e+00 2.10620400e+00 7.21659500e-03 5.33847200e-06    3
-7.37763600e-09 2.07561100e-12 9.78601100e+02 1.31521800e+01                   4
ho2                     H   1O   2          G   300.000  5000.000  1451.000    1
 4.58311499e+00 1.72730339e-03-6.19183136e-07 9.91939193e-11-5.88221567e-15    2
 3.13365859e+01 3.46199386e-01 3.47629499e+00 2.20467745e-03 1.56841876e-06    3
-2.12755802e-09 5.83140718e-13 6.17073446e+02 7.02308516e+00                   4
co                      C   1O   1          G   300.000  5000.000  1000.000    1
 3.02507800e+00 1.44268900e-03-5.63082800e-07 1.01858100e-10-6.91095200e-15    2
-1.42683500e+04 6.10821800e+00 3.26245200e+00 1.51194100e-03-3.88175500e-06    3
 5.58194400e-09-2.47495100e-12-1.43105400e+04 4.84889700e+00                   4
c2h2                    C   2H   2          G   300.000  5000.000  1000.000    1
 4.43677000e+00 5.37603900e-03-1.91281700e-06 3.28637900e-10-2.15671000e-14    2
 2.56676600e+04-2.80033800e+00 2.01356200e+00 1.51904500e-02-1.61631900e-05    3
 9.07899200e-09-1.91274600e-12 2.61244400e+04 8.80537800e+00                   4
h2o2                    H   2O   2          G   300.000  5000.000  1000.000    1
 4.57316700e+00 4.33613600e-03-1.47468900e-06 2.34890400e-10-1.43165400e-14    2
-1.80069600e+04 5.01137000e-01 3.38875400e+00 6.56922600e-03-1.48501300e-07    3
-4.62580600e-09 2.47151500e-12-1.76631500e+04 6.78536300e+00                   4
c2h5oh                  C   2H   6O   1     G   300.000  5000.000  1000.000    1
 6.56243650e+00 1.52042220e-02-5.38967950e-06 8.62250110e-10-5.12897870e-14    2
-3.15256210e+04-9.47302020e+00 4.85869570e+00-3.74017260e-03 6.95553780e-05    3
-8.86547960e-08 3.51688350e-11-2.99961320e+04 4.80185450e+00                   4
pc3h5                   C   3H   5          G   300.000  4000.000  1000.000    1
 9.20976400e+00 7.87141300e-03-7.72452300e-07-4.49735700e-10 8.37727200e-14    2
 2.85396700e+04-2.23237000e+01 3.16186300e+00 1.51810000e-02 2.72265900e-06    3
-5.17711200e-09 5.43528600e-14 3.09554800e+04 1.19797300e+01                   4
END
!---------------------------------------------------------------------------
!  
!---------------------------------------------------------------------------
REACTIONS
h2+oh<=>h+h2o                                      2.140E+08    1.520    3449.00
o+oh<=>h+o2                                        2.020E+14   -0.400       0.00
h2+o<=>h+oh                                        5.060E+04    2.670    6290.00
h+o2(+M)<=>ho2(+M)                                 4.52000E+13    0.000       0.00
     LOW  /  1.05000E+19  -1.257  0.00/
ch4/ 10.0/ co/ 1.9/ co2/ 3.8/ h2/ 0.0/ h2o/ 0.0/ n2/ 0.0/
h+o2(+n2)<=>ho2(+n2)                               4.52000E+13    0.000       0.00
     LOW  /  2.03000E+20  -1.590  0.00/
n2/ 1.0/
h+o2(+h2)<=>ho2(+h2)                               4.52000E+13    0.000       0.00
     LOW  /  1.52000E+19  -1.133  0.00/
h2/ 1.0/
h+o2(+h2o)<=>ho2(+h2o)                             4.52000E+13    0.000       0.00
     LOW  /  2.10000E+23  -2.437  0.00/
h2o/ 1.0/
ho2+oh<=>h2o+o2                                    2.130E+28   -4.827    3500.00
 DUPLICATE
ho2+oh<=>h2o+o2                                    9.100E+14    0.000   10964.00
 DUPLICATE
h+ho2<=>2oh                                        1.500E+14    0.000    1000.00
h+ho2<=>h2+o2                                      6.630E+13    0.000    2126.00
h+ho2<=>h2o+o                                      3.010E+13    0.000    1721.00
ho2+o<=>o2+oh                                      3.250E+13    0.000       0.00
2oh<=>h2o+o                                        3.570E+04    2.400   -2112.00
2h+M<=>h2+M                                        1.000E+18   -1.000       0.00
h2/ 0.0/ h2o/ 0.0/
2h+h2<=>h2+h2                                      9.200E+16   -0.600       0.00
h2/ 1.0/
2h+h2o<=>h2+h2o                                    6.000E+19   -1.250       0.00
h2o/ 1.0/
h+oh+M<=>h2o+M                                     2.210E+22   -2.000       0.00
h2o/ 6.4/
h+o+M<=>oh+M                                       4.710E+18   -1.000       0.00
h2o/ 6.4/
2o+M<=>o2+M                                        1.890E+13    0.000   -1788.00
2ho2<=>h2o2+o2                                     4.200E+14    0.000   11982.00
 DUPLICATE
2ho2<=>h2o2+o2                                     1.300E+11    0.000   -1629.00
 DUPLICATE
2oh(+M)<=>h2o2(+M)                                 1.24000E+14   -0.370       0.00
     LOW  /  3.04000E+30  -4.630  2049.00/
     TROE/   0.47  100.0  2000.0  1000000000000000.0 /
h+h2o2<=>h2+ho2                                    1.980E+06    2.000    2435.00
h+h2o2<=>h2o+oh                                    3.070E+13    0.000    4217.00
h2o2+o<=>ho2+oh                                    9.550E+06    2.000    3970.00
h2o2+oh<=>h2o+ho2                                  2.400E+00    4.042   -2162.00
ch3+h(+M)<=>ch4(+M)                                2.14000E+15   -0.400       0.00
     LOW  /  3.31000E+30  -4.000  2108.00/
     TROE/   0.0  1e-15  1e-15  40.0 /
co/ 2.0/ co2/ 3.0/ h2/ 2.0/ h2o/ 5.0/
ch4+h<=>ch3+h2                                     2.200E+04    3.000    8750.00
ch4+oh<=>ch3+h2o                                   4.190E+06    2.000    2547.00
ch4+o<=>ch3+oh                                     6.920E+08    1.560    8485.00
ch4+ho2<=>ch3+h2o2                                 1.120E+13    0.000   24640.00
ch3+ho2<=>ch3o+oh                                  7.000E+12    0.000       0.00
ch3+ho2<=>ch4+o2                                   3.000E+12    0.000       0.00
ch3+o<=>ch2o+h                                     8.000E+13    0.000       0.00
ch3+o2<=>ch3o+o                                    1.450E+13    0.000   29209.00
ch3+o2<=>ch2o+oh                                   2.510E+11    0.000   14640.00
ch3o+h<=>ch3+oh                                    1.000E+13    0.000       0.00
ch3+oh<=>ch2(s)+h2o                                2.000E+13    0.000     550.00
ch3+oh<=>h2+hcoh                                   1.000E+10    0.000    -415.00
ch3+M<=>ch+h2+M                                    6.900E+14    0.000   82469.00
ch3+oh(+M)<=>ch3oh(+M)                             8.70000E+13    0.100       0.00
     LOW  /  8.84000E+41  -7.400  626.00/
     TROE/   0.025  1e-15  8000.0  3000.0 /
co/ 2.0/ co2/ 3.0/ h2/ 2.0/ h2o/ 10.0/
ch3oh(+M)<=>ch2(s)+h2o(+M)                         2.83700E+10    1.000   83871.00
     LOW  /  1.78000E+49  -8.810  93369.00/
     TROE/   0.9  740.0  979.9999999999999  5100.0 /
co/ 2.0/ co2/ 3.0/ h2/ 2.0/ h2o/ 10.0/
ch3oh(+M)<=>h2+hcoh(+M)                            4.20000E+09    1.120   85604.00
     LOW  /  5.02000E+47  -8.402  94823.00/
     TROE/   0.9  615.0  915.0  4615.0 /
co/ 2.0/ co2/ 3.0/ h2/ 2.0/ h2o/ 10.0/
ch3oh(+M)<=>ch2o+h2(+M)                            2.03000E+09    1.000   91443.00
     LOW  /  9.78400E+47  -8.400  101761.00/
     TROE/   0.9  825.0  1125.0  5700.0 /
co/ 2.0/ co2/ 3.0/ h2/ 2.0/ h2o/ 10.0/
ch3oh+oh<=>ch3o+h2o                                2.620E+06    2.056     916.00
ch3oh+h<=>ch3o+h2                                  4.240E+06    2.100    4868.00
ch3+ch3oh<=>ch3o+ch4                               1.450E+01    3.100    6935.00
ch2o+h(+M)<=>ch3o(+M)                              5.40000E+11    0.454    2600.00
     LOW  /  1.50000E+30  -4.800  5560.00/
     TROE/   0.758  94.0  1555.0  4200.0 /
h2o/ 5.0/
ch3+ch3o<=>ch2o+ch4                                1.200E+13    0.000       0.00
ch3o+h<=>ch2o+h2                                   2.000E+13    0.000       0.00
ch3o+oh<=>ch2o+h2o                                 1.000E+13    0.000       0.00
ch3o+o<=>ch2o+oh                                   1.000E+13    0.000       0.00
ch3o+o2<=>ch2o+ho2                                 6.300E+10    0.000    2600.00
ch3o+co<=>ch3+co2                                  4.680E+02    3.160    5380.00
hcoh+oh<=>h2o+hco                                  2.000E+13    0.000       0.00
h+hcoh<=>ch2o+h                                    2.000E+14    0.000       0.00
hcoh+o<=>co+h+oh                                   8.000E+13    0.000       0.00
hcoh+o2<=>co+2oh                                   1.000E+13    0.000       0.00
hcoh+o2<=>co2+h2o                                  1.000E+13    0.000       0.00
hcoh<=>ch2o                                        2.100E+19   -3.070   31700.00
ch2(s)+ch4<=>2ch3                                  4.000E+13    0.000       0.00
ch2(s)+o2<=>co+h+oh                                7.000E+13    0.000       0.00
ch2(s)+h2<=>ch3+h                                  7.000E+13    0.000       0.00
c2h2+ch2(s)<=>h+h2ccch                             1.500E+14    0.000       0.00
ch2(s)+o<=>co+2h                                   3.000E+13    0.000       0.00
ch2(s)+oh<=>ch2o+h                                 3.000E+13    0.000       0.00
ch2(s)+h<=>ch+h2                                   3.000E+13    0.000       0.00
ch2(s)+co2<=>ch2o+co                               3.000E+12    0.000       0.00
ch2(s)+ch3<=>c2h4+h                                2.000E+13    0.000       0.00
ch+o2<=>hco+o                                      3.300E+13    0.000       0.00
ch+o<=>co+h                                        5.700E+13    0.000       0.00
ch+oh<=>h+hco                                      3.000E+13    0.000       0.00
ch+co2<=>co+hco                                    3.400E+12    0.000     690.00
ch+h2o<=>ch2o+h                                    1.170E+15   -0.750       0.00
ch+ch3<=>c2h3+h                                    3.000E+13    0.000       0.00
ch+ch4<=>c2h4+h                                    6.000E+13    0.000       0.00
hcooh+oh<=>co2+h+h2o                               2.620E+06    2.056     916.00
hcooh+oh<=>co+h2o+oh                               1.850E+07    1.500    -962.00
oh/ 1.0/
hcooh+h<=>co2+h2+h                                 4.240E+06    2.100    4868.00
h/ 1.0/
h+hcooh<=>co+h2+oh                                 6.060E+13   -0.350    2988.00
ch3+hcooh<=>ch4+co+oh                              3.900E-07    5.800    2200.00
hcooh+ho2<=>co+h2o2+oh                             2.400E+19   -2.200   14030.00
hcooh+o<=>co+2oh                                   1.770E+18   -1.900    2975.00
ch2o+oh<=>h2o+hco                                  3.430E+09    1.180    -447.00
ch2o+h<=>h2+hco                                    2.190E+08    1.770    3000.00
ch2o+M<=>h+hco+M                                   3.310E+16    0.000   81000.00
ch2o+o<=>hco+oh                                    1.800E+13    0.000    3080.00
hco+o2<=>co+ho2                                    7.580E+12    0.000     410.00
hco+M<=>co+h+M                                     1.860E+17   -1.000   17000.00
ch4/ 2.81/ co/ 1.87/ co2/ 3.0/ h2/ 1.87/ h2o/ 5.0/
hco+oh<=>co+h2o                                    1.000E+14    0.000       0.00
h+hco<=>co+h2                                      1.190E+13    0.250       0.00
hco+o<=>co+oh                                      3.000E+13    0.000       0.00
hco+o<=>co2+h                                      3.000E+13    0.000       0.00
co+oh<=>co2+h                                      9.420E+03    2.250   -2351.00
co+o+M<=>co2+M                                     6.170E+14    0.000    3000.00
co+o2<=>co2+o                                      2.530E+12    0.000   47688.00
co+ho2<=>co2+oh                                    5.800E+13    0.000   22934.00
c2h5oh(+M)<=>c2h5+oh(+M)                           1.25000E+23   -1.540   96005.00
     LOW  /  3.25200E+85  -18.810  114930.00/
     TROE/   0.5  300.0  900.0  5000.0 /
co/ 2.0/ co2/ 3.0/ h2/ 2.0/ h2o/ 5.0/
c2h5oh(+M)<=>c2h4+h2o(+M)                          2.79000E+13    0.090   66136.00
     LOW  /  2.57000E+83  -18.850  86452.00/
     TROE/   0.7  350.0  800.0  3800.0 /
h2o/ 5.0/
c2h5oh(+M)<=>ch3hco+h2(+M)                         7.24000E+11    0.095   91007.00
     LOW  /  4.46000E+87  -19.420  115586.00/
     TROE/   0.9  900.0  1100.0  3500.0 /
h2o/ 5.0/
c2h5oh+oh<=>c2h4oh+h2o                             1.740E+11    0.270     600.00
c2h5oh+oh<=>ch3choh+h2o                            4.640E+11    0.150       0.00
c2h5oh+oh<=>ch3ch2o+h2o                            7.460E+11    0.300    1634.00
c2h5oh+h<=>c2h4oh+h2                               1.230E+07    1.800    5098.00
c2h5oh+h<=>ch3choh+h2                              2.580E+07    1.650    2827.00
c2h5oh+h<=>ch3ch2o+h2                              1.500E+07    1.600    3038.00
c2h5oh+o<=>c2h4oh+oh                               9.410E+07    1.700    5459.00
c2h5oh+o<=>ch3choh+oh                              1.880E+07    1.850    1824.00
c2h5oh+o<=>ch3ch2o+oh                              1.580E+07    2.000    4448.00
c2h5oh+ch3<=>c2h4oh+ch4                            2.190E+02    3.180    9622.00
c2h5oh+ch3<=>ch3choh+ch4                           7.280E+02    2.990    7948.00
c2h5oh+ch3<=>ch3ch2o+ch4                           1.450E+02    2.990    7649.00
c2h5oh+ho2<=>ch3choh+h2o2                          8.200E+03    2.550   10750.00
c2h5oh+ho2<=>c2h4oh+h2o2                           1.230E+04    2.550   15750.00
c2h5oh+ho2<=>ch3ch2o+h2o2                          2.500E+12    0.000   24000.00
ch3ch2o+M<=>ch3hco+h+M                             1.160E+35   -5.890   25274.00
ch3ch2o+M<=>ch2o+ch3+M                             1.350E+38   -6.960   23800.00
ch3ch2o+o2<=>ch3hco+ho2                            4.000E+10    0.000    1100.00
ch3ch2o+co<=>c2h5+co2                              4.680E+02    3.160    5380.00
ch3ch2o+h<=>c2h4+h2o                               3.000E+13    0.000       0.00
ch3ch2o+oh<=>ch3hco+h2o                            1.000E+13    0.000       0.00
ch3choh+o2<=>ch3hco+ho2                            4.820E+14    0.000    5017.00
 DUPLICATE
ch3choh+o2<=>ch3hco+ho2                            8.430E+15   -1.200       0.00
 DUPLICATE
ch3choh+o<=>ch3hco+oh                              1.000E+14    0.000       0.00
ch3choh+h<=>c2h4+h2o                               3.000E+13    0.000       0.00
ch3choh+ho2<=>ch3hco+2oh                           4.000E+13    0.000       0.00
ch3choh+oh<=>ch3hco+h2o                            5.000E+12    0.000       0.00
ch3choh+M<=>ch3hco+h+M                             1.000E+14    0.000   25000.00
ch3hco+oh<=>ch3+hcooh                              3.000E+15   -1.076       0.00
c2h5+h<=>c2h4+h2                                   1.250E+14    0.000    8000.00
c2h5+h<=>2ch3                                      3.000E+13    0.000       0.00
c2h5+oh<=>c2h4+h2o                                 4.000E+13    0.000       0.00
c2h5+o<=>ch2o+ch3                                  1.000E+14    0.000       0.00
c2h5+ho2<=>ch3ch2o+oh                              3.000E+13    0.000       0.00
c2h5+o2<=>c2h4+ho2                                 2.890E+28   -5.400    7585.00
c2h5+o2<=>ch3hco+oh                                4.900E+11   -0.480    8357.00
c2h4+oh<=>c2h4oh                                   1.290E+12    0.000    -817.00
c2h4oh+o2<=>hoc2h4o2                               1.000E+12    0.000   -1100.00
hoc2h4o2<=>2ch2o+oh                                6.000E+10    0.000   24500.00
c2h4+oh<=>c2h3+h2o                                 2.020E+13    0.000    5936.00
c2h4+o<=>ch3+hco                                   1.020E+07    1.880     179.00
c2h4+ch3<=>c2h3+ch4                                6.620E+00    3.700    9500.00
c2h4+h<=>c2h3+h2                                   3.360E-07    6.000    1692.00
c2h4+h(+M)<=>c2h5(+M)                              1.08000E+12    0.454    1822.00
     LOW  /  1.11200E+34  -5.000  4448.00/
     TROE/   1.0  1e-15  95.0  200.0 /
co/ 2.0/ co2/ 3.0/ h2/ 2.0/ h2o/ 5.0/
c2h4(+M)<=>c2h2+h2(+M)                             1.80000E+14    0.000   87000.00
     LOW  /  1.50000E+15  0.000  55443.00/
c2h3+h(+M)<=>c2h4(+M)                              6.10000E+12    0.270     280.00
     LOW  /  9.80000E+29  -3.860  3320.00/
     TROE/   0.782  208.0  2663.0  6095.0 /
h2o/ 5.0/
c2h3+h<=>c2h2+h2                                   9.000E+13    0.000       0.00
c2h3+o2<=>ch2o+hco                                 1.700E+29   -5.312    6500.00
c2h3+o2<=>c2h2+ho2                                 2.120E-06    6.000    9484.00
c2h3+oh<=>c2h2+h2o                                 2.000E+13    0.000       0.00
c2h+c2h3<=>2c2h2                                   3.000E+13    0.000       0.00
c2h3+ch3<=>c2h2+ch4                                2.000E+13    0.000       0.00
c2h2+oh<=>c2h+h2o                                  3.370E+07    2.000   14000.00
c2h2+oh<=>ch3+co                                   4.830E-04    4.000   -2000.00
c2h2+o<=>h+hcco                                    1.430E+07    2.000    1900.00
c2h2+o<=>c2h+oh                                    3.160E+15   -0.600   15000.00
c2h2+ch3<=>c2h+ch4                                 1.810E+11    0.000   17289.00
c2h2+o2<=>hcco+oh                                  4.000E+07    1.500   30100.00
c2h2+M<=>c2h+h+M                                   4.200E+16    0.000  107000.00
c2h2+h(+M)<=>c2h3(+M)                              3.11000E+11    0.580    2589.00
     LOW  /  2.25000E+40  -7.269  6577.00/
     TROE/   1.0  1e-15  675.0  1000000000000000.0 /
co/ 2.0/ co2/ 3.0/ h2/ 2.0/ h2o/ 5.0/
c2h+h2<=>c2h2+h                                    4.090E+05    2.390     864.30
c2h+o<=>ch+co                                      5.000E+13    0.000       0.00
c2h+oh<=>h+hcco                                    2.000E+13    0.000       0.00
c2h+o2<=>2co+h                                     9.040E+12    0.000    -457.00
c2h2+hcco<=>co+h2ccch                              1.000E+11    0.000    3000.00
h+hcco<=>ch2(s)+co                                 1.000E+14    0.000       0.00
hcco+o<=>2co+h                                     8.000E+13    0.000       0.00
hcco+o<=>ch+co2                                    2.950E+13    0.000    1113.00
hcco+o2<=>co+hco+o                                 2.500E+08    1.000       0.00
hcco+o2<=>co2+hco                                  2.400E+11    0.000    -854.00
ch+hcco<=>c2h2+co                                  5.000E+13    0.000       0.00
2hcco<=>c2h2+2co                                   1.000E+13    0.000       0.00
ch3chco+oh<=>ch2chco+h2o                           4.000E+06    2.000       0.00
ch3chco+o<=>ch2chco+oh                             7.600E+08    1.500    8500.00
ch3chco+h<=>ch2chco+h2                             2.000E+05    2.500    2500.00
ch3chco+h<=>c2h5+co                                2.000E+13    0.000    2000.00
ch3chco+o<=>ch3+co+hco                             3.000E+07    2.000       0.00