!---------------------------------------------------------------------------
!  
!---------------------------------------------------------------------------
ELEMENTS
C H O N
END
SPECIES
ch4             oh              c2h4oh          o2              
ch3chco         o               c2h5            c2h3            ch3oh           
h2o             ch2(s)          n2              ch3ch2o         
ch3choh         h               co2             ch3             
ch2chco         ch3hco          hco             ho2             co              
c2h5oh          pc3h5           
END
!---------------------------------------------------------------------------
!  
!---------------------------------------------------------------------------
THERMO ALL
   300.000  1000.000  5000.000
ch4                     C   1H   4          G   300.000  5000.000  1000.000    1
 1.68347900e+00 1.02372400e-02-3.87512900e-06 6.78558500e-10-4.50342300e-14    2
-1.00807900e+04 9.62339500e+00 7.78741500e-01 1.74766800e-02-2.78340900e-05    3
 3.04970800e-08-1.22393100e-11-9.82522900e+03 1.37221900e+01                   4
oh                      H   1O   1          G   300.000  5000.000  1000.000    1
 2.88273000e+00 1.01397400e-03-2.27687700e-07 2.17468400e-11-5.12630500e-16    2
 3.88688800e+03 5.59571200e+00 3.63726600e+00 1.85091000e-04-1.67616500e-06    3
 2.38720300e-09-8.43144200e-13 3.60678200e+03 1.35886000e+00                   4
c2h4oh                  C   2H   5O   1     G   300.000  5000.000  1405.000    1
 8.75544496e+00 9.49453147e-03-3.08803575e-06 4.63537621e-10-2.62730044e-14    2
-8.09602047e+03-2.03271929e+01 7.76157606e-01 2.91002514e-02-2.13980569e-05    3
 8.16833894e-09-1.25591600e-12-5.46808396e+03 2.21060185e+01                   4
o2                      O   2               G   300.000  5000.000  1000.000    1
 3.69757800e+00 6.13519700e-04-1.25884200e-07 1.77528100e-11-1.13643500e-15    2
-1.23393000e+03 3.18916600e+00 3.21293600e+00 1.12748600e-03-5.75615000e-07    3
 1.31387700e-09-8.76855400e-13-1.00524900e+03 6.03473800e+00                   4
ch3chco                 C   3H   4O   1     G   300.000  5000.000  1392.000    1
 9.40386796e+00 9.90994860e-03-3.34130605e-06 5.13787016e-10-2.96102254e-14    2
-1.42771281e+04-2.42902025e+01 2.69187311e+00 2.49761396e-02-1.61712107e-05    3
 5.46391115e-09-7.62496644e-13-1.18758805e+04 1.19898101e+01                   4
o                       O   1               G   300.000  5000.000  1000.000    1
 2.54206000e+00-2.75506200e-05-3.10280300e-09 4.55106700e-12-4.36805200e-16    2
 2.92308000e+04 4.92030800e+00 2.94642900e+00-1.63816600e-03 2.42103200e-06    3
-1.60284300e-09 3.89069600e-13 2.91476400e+04 2.96399500e+00                   4
c2h5                    C   2H   5          G   300.000  5000.000  1375.000    1
 5.60116091e+00 1.06977081e-02-3.63504780e-06 5.61816654e-10-3.24914714e-14    2
 1.14539845e+04-7.02252408e+00 1.47374852e+00 1.63606611e-02-4.32896826e-06    3
-1.17270665e-09 5.72325883e-13 1.33326992e+04 1.66349852e+01                   4
c2h3                    C   2H   3          G   300.000  5000.000  1671.000    1
 3.96047713e+00 7.99426013e-03-2.85608087e-06 4.58350813e-10-2.72570140e-14    2
 3.35153544e+04 2.25663414e+00 2.73925942e+00 7.03011591e-03 2.36647299e-06    3
-3.59569737e-09 8.91756491e-13 3.42868979e+04 1.01531535e+01                   4
ch3oh                   C   1H   4O   1     G   300.000  5000.000  1000.000    1
 4.02906100e+00 9.37659300e-03-3.05025400e-06 4.35879300e-10-2.22472300e-14    2
-2.61579100e+04 2.37819600e+00 2.66011500e+00 7.34150800e-03 7.17005100e-06    3
-8.79319400e-09 2.39057000e-12-2.53534800e+04 1.12326300e+01                   4
h2o                     H   2O   1          G   300.000  5000.000  1000.000    1
 2.67214600e+00 3.05629300e-03-8.73026000e-07 1.20099600e-10-6.39161800e-15    2
-2.98992100e+04 6.86281700e+00 3.38684200e+00 3.47498200e-03-6.35469600e-06    3
 6.96858100e-09-2.50658800e-12-3.02081100e+04 2.59023300e+00                   4
ch2(s)                  C   1H   2          G   300.000  5000.000  1359.000    1
 3.09627180e+00 2.80839185e-03-7.13614526e-07 8.42136298e-11-3.84640828e-15    2
 5.05739697e+04 4.31392269e+00 3.32340701e+00 2.28062579e-03-2.48156016e-07    3
-1.02065386e-10 2.48826619e-14 5.04954469e+04 3.09401497e+00                   4
n2                      N   2               G   300.000  5000.000  1000.000    1
 2.92664000e+00 1.48797700e-03-5.68476100e-07 1.00970400e-10-6.75335100e-15    2
-9.22797700e+02 5.98052800e+00 3.29867700e+00 1.40824000e-03-3.96322200e-06    3
 5.64151500e-09-2.44485500e-12-1.02090000e+03 3.95037200e+00                   4
ch3ch2o                 C   2H   5O   1     G   300.000  5000.000  1405.000    1
 8.31182392e+00 1.03426319e-02-3.39186089e-06 5.12212617e-10-2.91601713e-14    2
-6.13097954e+03-2.13985581e+01-2.71296378e-01 2.98839812e-02-1.97090548e-05    3
 6.37339893e-09-7.77965054e-13-3.16397196e+03 2.47706003e+01                   4
ch3choh                 C   2H   5O   1     G   300.000  5000.000  1524.000    1
 7.95432747e+00 1.05008170e-02-3.50631590e-06 5.36174608e-10-3.07978459e-14    2
-8.62199768e+03-1.90411129e+01 2.10026806e+00 1.92626679e-02-5.17437436e-06    3
-1.96190582e-09 9.36397060e-13-6.12873036e+03 1.40909302e+01                   4
h                       H   1               G   300.000  5000.000  1000.000    1
 2.50000000e+00 0.00000000e+00 0.00000000e+00 0.00000000e+00 0.00000000e+00    2
 2.54716300e+04-4.60117600e-01 2.50000000e+00 0.00000000e+00 0.00000000e+00    3
 0.00000000e+00 0.00000000e+00 2.54716300e+04-4.60117600e-01                   4
co2                     C   1O   2          G   300.000  5000.000  1000.000    1
 4.45362300e+00 3.14016900e-03-1.27841100e-06 2.39399700e-10-1.66903300e-14    2
-4.89669600e+04-9.55395900e-01 2.27572500e+00 9.92207200e-03-1.04091100e-05    3
 6.86668700e-09-2.11728000e-12-4.83731400e+04 1.01884900e+01                   4
ch3                     C   1H   3          G   300.000  5000.000  1000.000    1
 2.84405200e+00 6.13797400e-03-2.23034500e-06 3.78516100e-10-2.45215900e-14    2
 1.64378100e+04 5.45269700e+00 2.43044300e+00 1.11241000e-02-1.68022000e-05    3
 1.62182900e-08-5.86495300e-12 1.64237800e+04 6.78979400e+00                   4
ch2chco                 C   3H   3O   1     G   300.000  5000.000  1391.000    1
 9.48105566e+00 7.77714755e-03-2.71155669e-06 4.26495971e-10-2.49722495e-14    2
 3.20858016e+03-2.42916680e+01 7.83370450e-01 2.90353899e-02-2.28846927e-05    3
 9.25645234e-09-1.52213238e-12 6.13409525e+03 2.20858902e+01                   4
ch3hco                  C   2H   4O   1     G   300.000  5000.000  1000.000    1
 5.86865000e+00 1.07942400e-02-3.64553000e-06 5.41291200e-10-2.89684400e-14    2
-2.26456900e+04-6.01294600e+00 2.50569500e+00 1.33699100e-02 4.67195300e-06    3
-1.12814000e-08 4.26356600e-12-2.12458900e+04 1.33508900e+01                   4
hco                     C   1H   1O   1     G   300.000  5000.000  1000.000    1
 3.55727100e+00 3.34557300e-03-1.33500600e-06 2.47057300e-10-1.71385100e-14    2
 3.91632400e+03 5.55229900e+00 2.89833000e+00 6.19914700e-03-9.62308400e-06    3
 1.08982500e-08-4.57488500e-12 4.15992200e+03 8.98361400e+00                   4
ho2                     H   1O   2          G   300.000  5000.000  1451.000    1
 4.58311499e+00 1.72730339e-03-6.19183136e-07 9.91939193e-11-5.88221567e-15    2
 3.13365859e+01 3.46199386e-01 3.47629499e+00 2.20467745e-03 1.56841876e-06    3
-2.12755802e-09 5.83140718e-13 6.17073446e+02 7.02308516e+00                   4
co                      C   1O   1          G   300.000  5000.000  1000.000    1
 3.02507800e+00 1.44268900e-03-5.63082800e-07 1.01858100e-10-6.91095200e-15    2
-1.42683500e+04 6.10821800e+00 3.26245200e+00 1.51194100e-03-3.88175500e-06    3
 5.58194400e-09-2.47495100e-12-1.43105400e+04 4.84889700e+00                   4
c2h5oh                  C   2H   6O   1     G   300.000  5000.000  1000.000    1
 6.56243650e+00 1.52042220e-02-5.38967950e-06 8.62250110e-10-5.12897870e-14    2
-3.15256210e+04-9.47302020e+00 4.85869570e+00-3.74017260e-03 6.95553780e-05    3
-8.86547960e-08 3.51688350e-11-2.99961320e+04 4.80185450e+00                   4
pc3h5                   C   3H   5          G   300.000  4000.000  1000.000    1
 9.20976400e+00 7.87141300e-03-7.72452300e-07-4.49735700e-10 8.37727200e-14    2
 2.85396700e+04-2.23237000e+01 3.16186300e+00 1.51810000e-02 2.72265900e-06    3
-5.17711200e-09 5.43528600e-14 3.09554800e+04 1.19797300e+01                   4
END
!---------------------------------------------------------------------------
!  
!---------------------------------------------------------------------------
REACTIONS
o+oh<=>h+o2                                        2.020E+14   -0.400       0.00
h+o2(+M)<=>ho2(+M)                                 4.52000E+13    0.000       0.00
     LOW  /  1.05000E+19  -1.257  0.00/
ch4/ 10.0/ co/ 1.9/ co2/ 3.8/ h2o/ 0.0/ n2/ 0.0/
h+o2(+n2)<=>ho2(+n2)                               4.52000E+13    0.000       0.00
     LOW  /  2.03000E+20  -1.590  0.00/
n2/ 1.0/
h+o2(+h2)<=>ho2(+h2)                               4.52000E+13    0.000       0.00
     LOW  /  1.52000E+19  -1.133  0.00/
/
h+o2(+h2o)<=>ho2(+h2o)                             4.52000E+13    0.000       0.00
     LOW  /  2.10000E+23  -2.437  0.00/
h2o/ 1.0/
ho2+oh<=>h2o+o2                                    2.130E+28   -4.827    3500.00
 DUPLICATE
ho2+oh<=>h2o+o2                                    9.100E+14    0.000   10964.00
 DUPLICATE
h+ho2<=>2oh                                        1.500E+14    0.000    1000.00
h+ho2<=>h2o+o                                      3.010E+13    0.000    1721.00
ho2+o<=>o2+oh                                      3.250E+13    0.000       0.00
2oh<=>h2o+o                                        3.570E+04    2.400   -2112.00
h+oh+M<=>h2o+M                                     2.210E+22   -2.000       0.00
h2o/ 6.4/
h+o+M<=>oh+M                                       4.710E+18   -1.000       0.00
h2o/ 6.4/
2o+M<=>o2+M                                        1.890E+13    0.000   -1788.00
ch3+h(+M)<=>ch4(+M)                                2.14000E+15   -0.400       0.00
     LOW  /  3.31000E+30  -4.000  2108.00/
     TROE/   0.0  1e-15  1e-15  40.0 /
co/ 2.0/ co2/ 3.0/ h2o/ 5.0/
ch4+oh<=>ch3+h2o                                   4.190E+06    2.000    2547.00
ch4+o<=>ch3+oh                                     6.920E+08    1.560    8485.00
ch3+ho2<=>ch4+o2                                   3.000E+12    0.000       0.00
ch3+oh<=>ch2(s)+h2o                                2.000E+13    0.000     550.00
ch3+oh(+M)<=>ch3oh(+M)                             8.70000E+13    0.100       0.00
     LOW  /  8.84000E+41  -7.400  626.00/
     TROE/   0.025  1e-15  8000.0  3000.0 /
co/ 2.0/ co2/ 3.0/ h2o/ 10.0/
ch3oh(+M)<=>ch2(s)+h2o(+M)                         2.83700E+10    1.000   83871.00
     LOW  /  1.78000E+49  -8.810  93369.00/
     TROE/   0.9  740.0  979.9999999999999  5100.0 /
co/ 2.0/ co2/ 3.0/ h2o/ 10.0/
ch2(s)+ch4<=>2ch3                                  4.000E+13    0.000       0.00
ch2(s)+o2<=>co+h+oh                                7.000E+13    0.000       0.00
ch2(s)+o<=>co+2h                                   3.000E+13    0.000       0.00
hco+o2<=>co+ho2                                    7.580E+12    0.000     410.00
hco+M<=>co+h+M                                     1.860E+17   -1.000   17000.00
ch4/ 2.81/ co/ 1.87/ co2/ 3.0/ h2o/ 5.0/
hco+oh<=>co+h2o                                    1.000E+14    0.000       0.00
hco+o<=>co+oh                                      3.000E+13    0.000       0.00
hco+o<=>co2+h                                      3.000E+13    0.000       0.00
co+oh<=>co2+h                                      9.420E+03    2.250   -2351.00
co+o+M<=>co2+M                                     6.170E+14    0.000    3000.00
co+o2<=>co2+o                                      2.530E+12    0.000   47688.00
co+ho2<=>co2+oh                                    5.800E+13    0.000   22934.00
c2h5oh(+M)<=>c2h5+oh(+M)                           1.25000E+23   -1.540   96005.00
     LOW  /  3.25200E+85  -18.810  114930.00/
     TROE/   0.5  300.0  900.0  5000.0 /
co/ 2.0/ co2/ 3.0/ h2o/ 5.0/
c2h5oh+oh<=>c2h4oh+h2o                             1.740E+11    0.270     600.00
c2h5oh+oh<=>ch3choh+h2o                            4.640E+11    0.150       0.00
c2h5oh+oh<=>ch3ch2o+h2o                            7.460E+11    0.300    1634.00
c2h5oh+o<=>c2h4oh+oh                               9.410E+07    1.700    5459.00
c2h5oh+o<=>ch3choh+oh                              1.880E+07    1.850    1824.00
c2h5oh+o<=>ch3ch2o+oh                              1.580E+07    2.000    4448.00
c2h5oh+ch3<=>c2h4oh+ch4                            2.190E+02    3.180    9622.00
c2h5oh+ch3<=>ch3choh+ch4                           7.280E+02    2.990    7948.00
c2h5oh+ch3<=>ch3ch2o+ch4                           1.450E+02    2.990    7649.00
ch3ch2o+M<=>ch3hco+h+M                             1.160E+35   -5.890   25274.00
ch3ch2o+o2<=>ch3hco+ho2                            4.000E+10    0.000    1100.00
ch3ch2o+co<=>c2h5+co2                              4.680E+02    3.160    5380.00
ch3ch2o+oh<=>ch3hco+h2o                            1.000E+13    0.000       0.00
ch3choh+o2<=>ch3hco+ho2                            4.820E+14    0.000    5017.00
 DUPLICATE
ch3choh+o2<=>ch3hco+ho2                            8.430E+15   -1.200       0.00
 DUPLICATE
ch3choh+o<=>ch3hco+oh                              1.000E+14    0.000       0.00
ch3choh+ho2<=>ch3hco+2oh                           4.000E+13    0.000       0.00
ch3choh+oh<=>ch3hco+h2o                            5.000E+12    0.000       0.00
ch3choh+M<=>ch3hco+h+M                             1.000E+14    0.000   25000.00
c2h5+h<=>2ch3                                      3.000E+13    0.000       0.00
c2h5+ho2<=>ch3ch2o+oh                              3.000E+13    0.000       0.00
c2h5+o2<=>ch3hco+oh                                4.900E+11   -0.480    8357.00
ch3chco+oh<=>ch2chco+h2o                           4.000E+06    2.000       0.00
ch3chco+o<=>ch2chco+oh                             7.600E+08    1.500    8500.00
ch3chco+h<=>c2h5+co                                2.000E+13    0.000    2000.00
ch3chco+o<=>ch3+co+hco                             3.000E+07    2.000       0.00
ch2chco<=>c2h3+co                                  1.000E+14    0.000   34000.00
ch2chco+o<=>c2h3+co2                               1.000E+14    0.000       0.00
o2+pc3h5<=>ch3hco+hco                              1.090E+23   -3.290    3892.00
o2+pc3h5<=>ch3chco+h+o                             1.600E+15   -0.780    3135.00
o+pc3h5<=>ch3chco+h                                1.000E+14    0.000       0.00
END